version 2
run General-0-20150311-14:34:01-21884
attr configname General
attr datetime 20150311-14:34:01
attr experiment General
attr inifile omnetpp.ini
attr iterationvars ""
attr iterationvars2 $repetition=0
attr measurement ""
attr network randPrefNet
attr processid 21884
attr repetition 0
attr replication #0
attr resultdir results
attr runnumber 0
attr seedset 0

scalar randPrefNet.R1I1.ipcProcess[0].relayAndMux.p0.port 	rmtport-down:last 	14
attr source  count(RMTPort_PassDown)
attr title  "msg passed down, last"
scalar randPrefNet.R1I1.ipcProcess[0].relayAndMux.p0.port 	rmtport-up:last 	14
attr ""  ""
attr source  count(RMTPort_PassUp)
attr title  "msg passed up, last"
scalar randPrefNet.R1I1.ipcProcess[0].relayAndMux.p0.inQ_M 	rmtqueue-drop:last 	-nan
attr source  count(RMTQueue_Drop)
attr title  "dropped PDUs, last"
scalar randPrefNet.R1I1.ipcProcess[0].relayAndMux.p0.outQ_M 	rmtqueue-drop:last 	-nan
attr source  count(RMTQueue_Drop)
attr title  "dropped PDUs, last"
scalar randPrefNet.R1I1.ipcProcess[0].relayAndMux.p0.inQ_0 	rmtqueue-drop:last 	-nan
attr source  count(RMTQueue_Drop)
attr title  "dropped PDUs, last"
scalar randPrefNet.R1I1.ipcProcess[0].relayAndMux.p0.outQ_0 	rmtqueue-drop:last 	-nan
attr source  count(RMTQueue_Drop)
attr title  "dropped PDUs, last"
scalar randPrefNet.R1I1.ipcProcess[1].relayAndMux.p0.port 	rmtport-down:last 	14
attr source  count(RMTPort_PassDown)
attr title  "msg passed down, last"
scalar randPrefNet.R1I1.ipcProcess[1].relayAndMux.p0.port 	rmtport-up:last 	14
attr ""  ""
attr source  count(RMTPort_PassUp)
attr title  "msg passed up, last"
scalar randPrefNet.R1I1.ipcProcess[1].relayAndMux.p0.inQ_M 	rmtqueue-drop:last 	-nan
attr source  count(RMTQueue_Drop)
attr title  "dropped PDUs, last"
scalar randPrefNet.R1I1.ipcProcess[1].relayAndMux.p0.outQ_M 	rmtqueue-drop:last 	-nan
attr source  count(RMTQueue_Drop)
attr title  "dropped PDUs, last"
scalar randPrefNet.R1I1.ipcProcess[1].relayAndMux.p0.inQ_0 	rmtqueue-drop:last 	-nan
attr source  count(RMTQueue_Drop)
attr title  "dropped PDUs, last"
scalar randPrefNet.R1I1.ipcProcess[1].relayAndMux.p0.outQ_0 	rmtqueue-drop:last 	-nan
attr source  count(RMTQueue_Drop)
attr title  "dropped PDUs, last"
scalar randPrefNet.R1I1.ipcProcess[2].relayAndMux.p0.port 	rmtport-down:last 	14
attr source  count(RMTPort_PassDown)
attr title  "msg passed down, last"
scalar randPrefNet.R1I1.ipcProcess[2].relayAndMux.p0.port 	rmtport-up:last 	14
attr ""  ""
attr source  count(RMTPort_PassUp)
attr title  "msg passed up, last"
scalar randPrefNet.R1I1.ipcProcess[2].relayAndMux.p0.inQ_M 	rmtqueue-drop:last 	-nan
attr source  count(RMTQueue_Drop)
attr title  "dropped PDUs, last"
scalar randPrefNet.R1I1.ipcProcess[2].relayAndMux.p0.outQ_M 	rmtqueue-drop:last 	-nan
attr source  count(RMTQueue_Drop)
attr title  "dropped PDUs, last"
scalar randPrefNet.R1I1.ipcProcess[2].relayAndMux.p0.inQ_0 	rmtqueue-drop:last 	-nan
attr source  count(RMTQueue_Drop)
attr title  "dropped PDUs, last"
scalar randPrefNet.R1I1.ipcProcess[2].relayAndMux.p0.outQ_0 	rmtqueue-drop:last 	-nan
attr source  count(RMTQueue_Drop)
attr title  "dropped PDUs, last"
scalar randPrefNet.R1I1.ipcProcess[3].relayAndMux.p0.port 	rmtport-down:last 	14
attr source  count(RMTPort_PassDown)
attr title  "msg passed down, last"
scalar randPrefNet.R1I1.ipcProcess[3].relayAndMux.p0.port 	rmtport-up:last 	14
attr ""  ""
attr source  count(RMTPort_PassUp)
attr title  "msg passed up, last"
scalar randPrefNet.R1I1.ipcProcess[3].relayAndMux.p0.inQ_M 	rmtqueue-drop:last 	-nan
attr source  count(RMTQueue_Drop)
attr title  "dropped PDUs, last"
scalar randPrefNet.R1I1.ipcProcess[3].relayAndMux.p0.outQ_M 	rmtqueue-drop:last 	-nan
attr source  count(RMTQueue_Drop)
attr title  "dropped PDUs, last"
scalar randPrefNet.R1I1.ipcProcess[3].relayAndMux.p0.inQ_0 	rmtqueue-drop:last 	-nan
attr source  count(RMTQueue_Drop)
attr title  "dropped PDUs, last"
scalar randPrefNet.R1I1.ipcProcess[3].relayAndMux.p0.outQ_0 	rmtqueue-drop:last 	-nan
attr source  count(RMTQueue_Drop)
attr title  "dropped PDUs, last"
scalar randPrefNet.R1I1.ipcProcess[4].relayAndMux.p0.port 	rmtport-down:last 	14
attr source  count(RMTPort_PassDown)
attr title  "msg passed down, last"
scalar randPrefNet.R1I1.ipcProcess[4].relayAndMux.p0.port 	rmtport-up:last 	14
attr ""  ""
attr source  count(RMTPort_PassUp)
attr title  "msg passed up, last"
scalar randPrefNet.R1I1.ipcProcess[4].relayAndMux.p0.inQ_M 	rmtqueue-drop:last 	-nan
attr source  count(RMTQueue_Drop)
attr title  "dropped PDUs, last"
scalar randPrefNet.R1I1.ipcProcess[4].relayAndMux.p0.outQ_M 	rmtqueue-drop:last 	-nan
attr source  count(RMTQueue_Drop)
attr title  "dropped PDUs, last"
scalar randPrefNet.R1I1.ipcProcess[4].relayAndMux.p0.inQ_0 	rmtqueue-drop:last 	-nan
attr source  count(RMTQueue_Drop)
attr title  "dropped PDUs, last"
scalar randPrefNet.R1I1.ipcProcess[4].relayAndMux.p0.outQ_0 	rmtqueue-drop:last 	-nan
attr source  count(RMTQueue_Drop)
attr title  "dropped PDUs, last"
scalar randPrefNet.R1I1.ipcProcess[5].relayAndMux.p0.port 	rmtport-down:last 	14
attr source  count(RMTPort_PassDown)
attr title  "msg passed down, last"
scalar randPrefNet.R1I1.ipcProcess[5].relayAndMux.p0.port 	rmtport-up:last 	14
attr ""  ""
attr source  count(RMTPort_PassUp)
attr title  "msg passed up, last"
scalar randPrefNet.R1I1.ipcProcess[5].relayAndMux.p0.inQ_M 	rmtqueue-drop:last 	-nan
attr source  count(RMTQueue_Drop)
attr title  "dropped PDUs, last"
scalar randPrefNet.R1I1.ipcProcess[5].relayAndMux.p0.outQ_M 	rmtqueue-drop:last 	-nan
attr source  count(RMTQueue_Drop)
attr title  "dropped PDUs, last"
scalar randPrefNet.R1I1.ipcProcess[5].relayAndMux.p0.inQ_0 	rmtqueue-drop:last 	-nan
attr source  count(RMTQueue_Drop)
attr title  "dropped PDUs, last"
scalar randPrefNet.R1I1.ipcProcess[5].relayAndMux.p0.outQ_0 	rmtqueue-drop:last 	-nan
attr source  count(RMTQueue_Drop)
attr title  "dropped PDUs, last"
scalar randPrefNet.R1I1.relayIpc.relayAndMux.p0.port 	rmtport-down:last 	7
attr source  count(RMTPort_PassDown)
attr title  "msg passed down, last"
scalar randPrefNet.R1I1.relayIpc.relayAndMux.p0.port 	rmtport-up:last 	6
attr ""  ""
attr source  count(RMTPort_PassUp)
attr title  "msg passed up, last"
scalar randPrefNet.R1I1.relayIpc.relayAndMux.p0.inQ_M 	rmtqueue-drop:last 	-nan
attr source  count(RMTQueue_Drop)
attr title  "dropped PDUs, last"
scalar randPrefNet.R1I1.relayIpc.relayAndMux.p0.outQ_M 	rmtqueue-drop:last 	-nan
attr source  count(RMTQueue_Drop)
attr title  "dropped PDUs, last"
scalar randPrefNet.R1I1.relayIpc.relayAndMux.p0.inQ_0 	rmtqueue-drop:last 	-nan
attr source  count(RMTQueue_Drop)
attr title  "dropped PDUs, last"
scalar randPrefNet.R1I1.relayIpc.relayAndMux.p0.outQ_0 	rmtqueue-drop:last 	-nan
attr source  count(RMTQueue_Drop)
attr title  "dropped PDUs, last"
scalar randPrefNet.R1I1.relayIpc.relayAndMux.p1.port 	rmtport-down:last 	7
attr source  count(RMTPort_PassDown)
attr title  "msg passed down, last"
scalar randPrefNet.R1I1.relayIpc.relayAndMux.p1.port 	rmtport-up:last 	6
attr ""  ""
attr source  count(RMTPort_PassUp)
attr title  "msg passed up, last"
scalar randPrefNet.R1I1.relayIpc.relayAndMux.p1.inQ_M 	rmtqueue-drop:last 	-nan
attr source  count(RMTQueue_Drop)
attr title  "dropped PDUs, last"
scalar randPrefNet.R1I1.relayIpc.relayAndMux.p1.outQ_M 	rmtqueue-drop:last 	-nan
attr source  count(RMTQueue_Drop)
attr title  "dropped PDUs, last"
scalar randPrefNet.R1I1.relayIpc.relayAndMux.p1.inQ_0 	rmtqueue-drop:last 	-nan
attr source  count(RMTQueue_Drop)
attr title  "dropped PDUs, last"
scalar randPrefNet.R1I1.relayIpc.relayAndMux.p1.outQ_0 	rmtqueue-drop:last 	-nan
attr source  count(RMTQueue_Drop)
attr title  "dropped PDUs, last"
scalar randPrefNet.R1I1.relayIpc.relayAndMux.p2.port 	rmtport-down:last 	7
attr source  count(RMTPort_PassDown)
attr title  "msg passed down, last"
scalar randPrefNet.R1I1.relayIpc.relayAndMux.p2.port 	rmtport-up:last 	6
attr ""  ""
attr source  count(RMTPort_PassUp)
attr title  "msg passed up, last"
scalar randPrefNet.R1I1.relayIpc.relayAndMux.p2.inQ_M 	rmtqueue-drop:last 	-nan
attr source  count(RMTQueue_Drop)
attr title  "dropped PDUs, last"
scalar randPrefNet.R1I1.relayIpc.relayAndMux.p2.outQ_M 	rmtqueue-drop:last 	-nan
attr source  count(RMTQueue_Drop)
attr title  "dropped PDUs, last"
scalar randPrefNet.R1I1.relayIpc.relayAndMux.p2.inQ_0 	rmtqueue-drop:last 	-nan
attr source  count(RMTQueue_Drop)
attr title  "dropped PDUs, last"
scalar randPrefNet.R1I1.relayIpc.relayAndMux.p2.outQ_0 	rmtqueue-drop:last 	-nan
attr source  count(RMTQueue_Drop)
attr title  "dropped PDUs, last"
scalar randPrefNet.R1I1.relayIpc.relayAndMux.p3.port 	rmtport-down:last 	7
attr source  count(RMTPort_PassDown)
attr title  "msg passed down, last"
scalar randPrefNet.R1I1.relayIpc.relayAndMux.p3.port 	rmtport-up:last 	6
attr ""  ""
attr source  count(RMTPort_PassUp)
attr title  "msg passed up, last"
scalar randPrefNet.R1I1.relayIpc.relayAndMux.p3.inQ_M 	rmtqueue-drop:last 	-nan
attr source  count(RMTQueue_Drop)
attr title  "dropped PDUs, last"
scalar randPrefNet.R1I1.relayIpc.relayAndMux.p3.outQ_M 	rmtqueue-drop:last 	-nan
attr source  count(RMTQueue_Drop)
attr title  "dropped PDUs, last"
scalar randPrefNet.R1I1.relayIpc.relayAndMux.p3.inQ_0 	rmtqueue-drop:last 	-nan
attr source  count(RMTQueue_Drop)
attr title  "dropped PDUs, last"
scalar randPrefNet.R1I1.relayIpc.relayAndMux.p3.outQ_0 	rmtqueue-drop:last 	-nan
attr source  count(RMTQueue_Drop)
attr title  "dropped PDUs, last"
scalar randPrefNet.R1I1.relayIpc.relayAndMux.p4.port 	rmtport-down:last 	7
attr source  count(RMTPort_PassDown)
attr title  "msg passed down, last"
scalar randPrefNet.R1I1.relayIpc.relayAndMux.p4.port 	rmtport-up:last 	6
attr ""  ""
attr source  count(RMTPort_PassUp)
attr title  "msg passed up, last"
scalar randPrefNet.R1I1.relayIpc.relayAndMux.p4.inQ_M 	rmtqueue-drop:last 	-nan
attr source  count(RMTQueue_Drop)
attr title  "dropped PDUs, last"
scalar randPrefNet.R1I1.relayIpc.relayAndMux.p4.outQ_M 	rmtqueue-drop:last 	-nan
attr source  count(RMTQueue_Drop)
attr title  "dropped PDUs, last"
scalar randPrefNet.R1I1.relayIpc.relayAndMux.p4.inQ_0 	rmtqueue-drop:last 	-nan
attr source  count(RMTQueue_Drop)
attr title  "dropped PDUs, last"
scalar randPrefNet.R1I1.relayIpc.relayAndMux.p4.outQ_0 	rmtqueue-drop:last 	-nan
attr source  count(RMTQueue_Drop)
attr title  "dropped PDUs, last"
scalar randPrefNet.R1I1.relayIpc.relayAndMux.p5.port 	rmtport-down:last 	7
attr source  count(RMTPort_PassDown)
attr title  "msg passed down, last"
scalar randPrefNet.R1I1.relayIpc.relayAndMux.p5.port 	rmtport-up:last 	6
attr ""  ""
attr source  count(RMTPort_PassUp)
attr title  "msg passed up, last"
scalar randPrefNet.R1I1.relayIpc.relayAndMux.p5.inQ_M 	rmtqueue-drop:last 	-nan
attr source  count(RMTQueue_Drop)
attr title  "dropped PDUs, last"
scalar randPrefNet.R1I1.relayIpc.relayAndMux.p5.outQ_M 	rmtqueue-drop:last 	-nan
attr source  count(RMTQueue_Drop)
attr title  "dropped PDUs, last"
scalar randPrefNet.R1I1.relayIpc.relayAndMux.p5.inQ_0 	rmtqueue-drop:last 	-nan
attr source  count(RMTQueue_Drop)
attr title  "dropped PDUs, last"
scalar randPrefNet.R1I1.relayIpc.relayAndMux.p5.outQ_0 	rmtqueue-drop:last 	-nan
attr source  count(RMTQueue_Drop)
attr title  "dropped PDUs, last"
scalar randPrefNet.R1I2.ipcProcess[0].relayAndMux.p0.port 	rmtport-down:last 	15
attr source  count(RMTPort_PassDown)
attr title  "msg passed down, last"
scalar randPrefNet.R1I2.ipcProcess[0].relayAndMux.p0.port 	rmtport-up:last 	15
attr ""  ""
attr source  count(RMTPort_PassUp)
attr title  "msg passed up, last"
scalar randPrefNet.R1I2.ipcProcess[0].relayAndMux.p0.inQ_M 	rmtqueue-drop:last 	-nan
attr source  count(RMTQueue_Drop)
attr title  "dropped PDUs, last"
scalar randPrefNet.R1I2.ipcProcess[0].relayAndMux.p0.outQ_M 	rmtqueue-drop:last 	-nan
attr source  count(RMTQueue_Drop)
attr title  "dropped PDUs, last"
scalar randPrefNet.R1I2.ipcProcess[0].relayAndMux.p0.inQ_0 	rmtqueue-drop:last 	-nan
attr source  count(RMTQueue_Drop)
attr title  "dropped PDUs, last"
scalar randPrefNet.R1I2.ipcProcess[0].relayAndMux.p0.outQ_0 	rmtqueue-drop:last 	-nan
attr source  count(RMTQueue_Drop)
attr title  "dropped PDUs, last"
scalar randPrefNet.R1I2.ipcProcess[1].relayAndMux.p0.port 	rmtport-down:last 	15
attr source  count(RMTPort_PassDown)
attr title  "msg passed down, last"
scalar randPrefNet.R1I2.ipcProcess[1].relayAndMux.p0.port 	rmtport-up:last 	15
attr ""  ""
attr source  count(RMTPort_PassUp)
attr title  "msg passed up, last"
scalar randPrefNet.R1I2.ipcProcess[1].relayAndMux.p0.inQ_M 	rmtqueue-drop:last 	-nan
attr source  count(RMTQueue_Drop)
attr title  "dropped PDUs, last"
scalar randPrefNet.R1I2.ipcProcess[1].relayAndMux.p0.outQ_M 	rmtqueue-drop:last 	-nan
attr source  count(RMTQueue_Drop)
attr title  "dropped PDUs, last"
scalar randPrefNet.R1I2.ipcProcess[1].relayAndMux.p0.inQ_0 	rmtqueue-drop:last 	-nan
attr source  count(RMTQueue_Drop)
attr title  "dropped PDUs, last"
scalar randPrefNet.R1I2.ipcProcess[1].relayAndMux.p0.outQ_0 	rmtqueue-drop:last 	-nan
attr source  count(RMTQueue_Drop)
attr title  "dropped PDUs, last"
scalar randPrefNet.R1I2.ipcProcess[2].relayAndMux.p0.port 	rmtport-down:last 	15
attr source  count(RMTPort_PassDown)
attr title  "msg passed down, last"
scalar randPrefNet.R1I2.ipcProcess[2].relayAndMux.p0.port 	rmtport-up:last 	15
attr ""  ""
attr source  count(RMTPort_PassUp)
attr title  "msg passed up, last"
scalar randPrefNet.R1I2.ipcProcess[2].relayAndMux.p0.inQ_M 	rmtqueue-drop:last 	-nan
attr source  count(RMTQueue_Drop)
attr title  "dropped PDUs, last"
scalar randPrefNet.R1I2.ipcProcess[2].relayAndMux.p0.outQ_M 	rmtqueue-drop:last 	-nan
attr source  count(RMTQueue_Drop)
attr title  "dropped PDUs, last"
scalar randPrefNet.R1I2.ipcProcess[2].relayAndMux.p0.inQ_0 	rmtqueue-drop:last 	-nan
attr source  count(RMTQueue_Drop)
attr title  "dropped PDUs, last"
scalar randPrefNet.R1I2.ipcProcess[2].relayAndMux.p0.outQ_0 	rmtqueue-drop:last 	-nan
attr source  count(RMTQueue_Drop)
attr title  "dropped PDUs, last"
scalar randPrefNet.R1I2.ipcProcess[3].relayAndMux.p0.port 	rmtport-down:last 	14
attr source  count(RMTPort_PassDown)
attr title  "msg passed down, last"
scalar randPrefNet.R1I2.ipcProcess[3].relayAndMux.p0.port 	rmtport-up:last 	14
attr ""  ""
attr source  count(RMTPort_PassUp)
attr title  "msg passed up, last"
scalar randPrefNet.R1I2.ipcProcess[3].relayAndMux.p0.inQ_M 	rmtqueue-drop:last 	-nan
attr source  count(RMTQueue_Drop)
attr title  "dropped PDUs, last"
scalar randPrefNet.R1I2.ipcProcess[3].relayAndMux.p0.outQ_M 	rmtqueue-drop:last 	-nan
attr source  count(RMTQueue_Drop)
attr title  "dropped PDUs, last"
scalar randPrefNet.R1I2.ipcProcess[3].relayAndMux.p0.inQ_0 	rmtqueue-drop:last 	-nan
attr source  count(RMTQueue_Drop)
attr title  "dropped PDUs, last"
scalar randPrefNet.R1I2.ipcProcess[3].relayAndMux.p0.outQ_0 	rmtqueue-drop:last 	-nan
attr source  count(RMTQueue_Drop)
attr title  "dropped PDUs, last"
scalar randPrefNet.R1I2.ipcProcess[4].relayAndMux.p0.port 	rmtport-down:last 	14
attr source  count(RMTPort_PassDown)
attr title  "msg passed down, last"
scalar randPrefNet.R1I2.ipcProcess[4].relayAndMux.p0.port 	rmtport-up:last 	14
attr ""  ""
attr source  count(RMTPort_PassUp)
attr title  "msg passed up, last"
scalar randPrefNet.R1I2.ipcProcess[4].relayAndMux.p0.inQ_M 	rmtqueue-drop:last 	-nan
attr source  count(RMTQueue_Drop)
attr title  "dropped PDUs, last"
scalar randPrefNet.R1I2.ipcProcess[4].relayAndMux.p0.outQ_M 	rmtqueue-drop:last 	-nan
attr source  count(RMTQueue_Drop)
attr title  "dropped PDUs, last"
scalar randPrefNet.R1I2.ipcProcess[4].relayAndMux.p0.inQ_0 	rmtqueue-drop:last 	-nan
attr source  count(RMTQueue_Drop)
attr title  "dropped PDUs, last"
scalar randPrefNet.R1I2.ipcProcess[4].relayAndMux.p0.outQ_0 	rmtqueue-drop:last 	-nan
attr source  count(RMTQueue_Drop)
attr title  "dropped PDUs, last"
scalar randPrefNet.R1I2.ipcProcess[5].relayAndMux.p0.port 	rmtport-down:last 	16
attr source  count(RMTPort_PassDown)
attr title  "msg passed down, last"
scalar randPrefNet.R1I2.ipcProcess[5].relayAndMux.p0.port 	rmtport-up:last 	16
attr ""  ""
attr source  count(RMTPort_PassUp)
attr title  "msg passed up, last"
scalar randPrefNet.R1I2.ipcProcess[5].relayAndMux.p0.inQ_M 	rmtqueue-drop:last 	-nan
attr source  count(RMTQueue_Drop)
attr title  "dropped PDUs, last"
scalar randPrefNet.R1I2.ipcProcess[5].relayAndMux.p0.outQ_M 	rmtqueue-drop:last 	-nan
attr source  count(RMTQueue_Drop)
attr title  "dropped PDUs, last"
scalar randPrefNet.R1I2.ipcProcess[5].relayAndMux.p0.inQ_0 	rmtqueue-drop:last 	-nan
attr source  count(RMTQueue_Drop)
attr title  "dropped PDUs, last"
scalar randPrefNet.R1I2.ipcProcess[5].relayAndMux.p0.outQ_0 	rmtqueue-drop:last 	-nan
attr source  count(RMTQueue_Drop)
attr title  "dropped PDUs, last"
scalar randPrefNet.R1I2.relayIpc.relayAndMux.p0.port 	rmtport-down:last 	7
attr source  count(RMTPort_PassDown)
attr title  "msg passed down, last"
scalar randPrefNet.R1I2.relayIpc.relayAndMux.p0.port 	rmtport-up:last 	7
attr ""  ""
attr source  count(RMTPort_PassUp)
attr title  "msg passed up, last"
scalar randPrefNet.R1I2.relayIpc.relayAndMux.p0.inQ_M 	rmtqueue-drop:last 	-nan
attr source  count(RMTQueue_Drop)
attr title  "dropped PDUs, last"
scalar randPrefNet.R1I2.relayIpc.relayAndMux.p0.outQ_M 	rmtqueue-drop:last 	-nan
attr source  count(RMTQueue_Drop)
attr title  "dropped PDUs, last"
scalar randPrefNet.R1I2.relayIpc.relayAndMux.p0.inQ_0 	rmtqueue-drop:last 	-nan
attr source  count(RMTQueue_Drop)
attr title  "dropped PDUs, last"
scalar randPrefNet.R1I2.relayIpc.relayAndMux.p0.outQ_0 	rmtqueue-drop:last 	-nan
attr source  count(RMTQueue_Drop)
attr title  "dropped PDUs, last"
scalar randPrefNet.R1I2.relayIpc.relayAndMux.p1.port 	rmtport-down:last 	7
attr source  count(RMTPort_PassDown)
attr title  "msg passed down, last"
scalar randPrefNet.R1I2.relayIpc.relayAndMux.p1.port 	rmtport-up:last 	7
attr ""  ""
attr source  count(RMTPort_PassUp)
attr title  "msg passed up, last"
scalar randPrefNet.R1I2.relayIpc.relayAndMux.p1.inQ_M 	rmtqueue-drop:last 	-nan
attr source  count(RMTQueue_Drop)
attr title  "dropped PDUs, last"
scalar randPrefNet.R1I2.relayIpc.relayAndMux.p1.outQ_M 	rmtqueue-drop:last 	-nan
attr source  count(RMTQueue_Drop)
attr title  "dropped PDUs, last"
scalar randPrefNet.R1I2.relayIpc.relayAndMux.p1.inQ_0 	rmtqueue-drop:last 	-nan
attr source  count(RMTQueue_Drop)
attr title  "dropped PDUs, last"
scalar randPrefNet.R1I2.relayIpc.relayAndMux.p1.outQ_0 	rmtqueue-drop:last 	-nan
attr source  count(RMTQueue_Drop)
attr title  "dropped PDUs, last"
scalar randPrefNet.R1I2.relayIpc.relayAndMux.p2.port 	rmtport-down:last 	7
attr source  count(RMTPort_PassDown)
attr title  "msg passed down, last"
scalar randPrefNet.R1I2.relayIpc.relayAndMux.p2.port 	rmtport-up:last 	7
attr ""  ""
attr source  count(RMTPort_PassUp)
attr title  "msg passed up, last"
scalar randPrefNet.R1I2.relayIpc.relayAndMux.p2.inQ_M 	rmtqueue-drop:last 	-nan
attr source  count(RMTQueue_Drop)
attr title  "dropped PDUs, last"
scalar randPrefNet.R1I2.relayIpc.relayAndMux.p2.outQ_M 	rmtqueue-drop:last 	-nan
attr source  count(RMTQueue_Drop)
attr title  "dropped PDUs, last"
scalar randPrefNet.R1I2.relayIpc.relayAndMux.p2.inQ_0 	rmtqueue-drop:last 	-nan
attr source  count(RMTQueue_Drop)
attr title  "dropped PDUs, last"
scalar randPrefNet.R1I2.relayIpc.relayAndMux.p2.outQ_0 	rmtqueue-drop:last 	-nan
attr source  count(RMTQueue_Drop)
attr title  "dropped PDUs, last"
scalar randPrefNet.R1I2.relayIpc.relayAndMux.p3.port 	rmtport-down:last 	7
attr source  count(RMTPort_PassDown)
attr title  "msg passed down, last"
scalar randPrefNet.R1I2.relayIpc.relayAndMux.p3.port 	rmtport-up:last 	6
attr ""  ""
attr source  count(RMTPort_PassUp)
attr title  "msg passed up, last"
scalar randPrefNet.R1I2.relayIpc.relayAndMux.p3.inQ_M 	rmtqueue-drop:last 	-nan
attr source  count(RMTQueue_Drop)
attr title  "dropped PDUs, last"
scalar randPrefNet.R1I2.relayIpc.relayAndMux.p3.outQ_M 	rmtqueue-drop:last 	-nan
attr source  count(RMTQueue_Drop)
attr title  "dropped PDUs, last"
scalar randPrefNet.R1I2.relayIpc.relayAndMux.p3.inQ_0 	rmtqueue-drop:last 	-nan
attr source  count(RMTQueue_Drop)
attr title  "dropped PDUs, last"
scalar randPrefNet.R1I2.relayIpc.relayAndMux.p3.outQ_0 	rmtqueue-drop:last 	-nan
attr source  count(RMTQueue_Drop)
attr title  "dropped PDUs, last"
scalar randPrefNet.R1I2.relayIpc.relayAndMux.p4.port 	rmtport-down:last 	7
attr source  count(RMTPort_PassDown)
attr title  "msg passed down, last"
scalar randPrefNet.R1I2.relayIpc.relayAndMux.p4.port 	rmtport-up:last 	6
attr ""  ""
attr source  count(RMTPort_PassUp)
attr title  "msg passed up, last"
scalar randPrefNet.R1I2.relayIpc.relayAndMux.p4.inQ_M 	rmtqueue-drop:last 	-nan
attr source  count(RMTQueue_Drop)
attr title  "dropped PDUs, last"
scalar randPrefNet.R1I2.relayIpc.relayAndMux.p4.outQ_M 	rmtqueue-drop:last 	-nan
attr source  count(RMTQueue_Drop)
attr title  "dropped PDUs, last"
scalar randPrefNet.R1I2.relayIpc.relayAndMux.p4.inQ_0 	rmtqueue-drop:last 	-nan
attr source  count(RMTQueue_Drop)
attr title  "dropped PDUs, last"
scalar randPrefNet.R1I2.relayIpc.relayAndMux.p4.outQ_0 	rmtqueue-drop:last 	-nan
attr source  count(RMTQueue_Drop)
attr title  "dropped PDUs, last"
scalar randPrefNet.R1I2.relayIpc.relayAndMux.p5.port 	rmtport-down:last 	7
attr source  count(RMTPort_PassDown)
attr title  "msg passed down, last"
scalar randPrefNet.R1I2.relayIpc.relayAndMux.p5.port 	rmtport-up:last 	8
attr ""  ""
attr source  count(RMTPort_PassUp)
attr title  "msg passed up, last"
scalar randPrefNet.R1I2.relayIpc.relayAndMux.p5.inQ_M 	rmtqueue-drop:last 	-nan
attr source  count(RMTQueue_Drop)
attr title  "dropped PDUs, last"
scalar randPrefNet.R1I2.relayIpc.relayAndMux.p5.outQ_M 	rmtqueue-drop:last 	-nan
attr source  count(RMTQueue_Drop)
attr title  "dropped PDUs, last"
scalar randPrefNet.R1I2.relayIpc.relayAndMux.p5.inQ_0 	rmtqueue-drop:last 	-nan
attr source  count(RMTQueue_Drop)
attr title  "dropped PDUs, last"
scalar randPrefNet.R1I2.relayIpc.relayAndMux.p5.outQ_0 	rmtqueue-drop:last 	-nan
attr source  count(RMTQueue_Drop)
attr title  "dropped PDUs, last"
scalar randPrefNet.R1I3.ipcProcess[0].relayAndMux.p0.port 	rmtport-down:last 	15
attr source  count(RMTPort_PassDown)
attr title  "msg passed down, last"
scalar randPrefNet.R1I3.ipcProcess[0].relayAndMux.p0.port 	rmtport-up:last 	15
attr ""  ""
attr source  count(RMTPort_PassUp)
attr title  "msg passed up, last"
scalar randPrefNet.R1I3.ipcProcess[0].relayAndMux.p0.inQ_M 	rmtqueue-drop:last 	-nan
attr source  count(RMTQueue_Drop)
attr title  "dropped PDUs, last"
scalar randPrefNet.R1I3.ipcProcess[0].relayAndMux.p0.outQ_M 	rmtqueue-drop:last 	-nan
attr source  count(RMTQueue_Drop)
attr title  "dropped PDUs, last"
scalar randPrefNet.R1I3.ipcProcess[0].relayAndMux.p0.inQ_0 	rmtqueue-drop:last 	-nan
attr source  count(RMTQueue_Drop)
attr title  "dropped PDUs, last"
scalar randPrefNet.R1I3.ipcProcess[0].relayAndMux.p0.outQ_0 	rmtqueue-drop:last 	-nan
attr source  count(RMTQueue_Drop)
attr title  "dropped PDUs, last"
scalar randPrefNet.R1I3.ipcProcess[1].relayAndMux.p0.port 	rmtport-down:last 	15
attr source  count(RMTPort_PassDown)
attr title  "msg passed down, last"
scalar randPrefNet.R1I3.ipcProcess[1].relayAndMux.p0.port 	rmtport-up:last 	15
attr ""  ""
attr source  count(RMTPort_PassUp)
attr title  "msg passed up, last"
scalar randPrefNet.R1I3.ipcProcess[1].relayAndMux.p0.inQ_M 	rmtqueue-drop:last 	-nan
attr source  count(RMTQueue_Drop)
attr title  "dropped PDUs, last"
scalar randPrefNet.R1I3.ipcProcess[1].relayAndMux.p0.outQ_M 	rmtqueue-drop:last 	-nan
attr source  count(RMTQueue_Drop)
attr title  "dropped PDUs, last"
scalar randPrefNet.R1I3.ipcProcess[1].relayAndMux.p0.inQ_0 	rmtqueue-drop:last 	-nan
attr source  count(RMTQueue_Drop)
attr title  "dropped PDUs, last"
scalar randPrefNet.R1I3.ipcProcess[1].relayAndMux.p0.outQ_0 	rmtqueue-drop:last 	-nan
attr source  count(RMTQueue_Drop)
attr title  "dropped PDUs, last"
scalar randPrefNet.R1I3.ipcProcess[2].relayAndMux.p0.port 	rmtport-down:last 	14
attr source  count(RMTPort_PassDown)
attr title  "msg passed down, last"
scalar randPrefNet.R1I3.ipcProcess[2].relayAndMux.p0.port 	rmtport-up:last 	14
attr ""  ""
attr source  count(RMTPort_PassUp)
attr title  "msg passed up, last"
scalar randPrefNet.R1I3.ipcProcess[2].relayAndMux.p0.inQ_M 	rmtqueue-drop:last 	-nan
attr source  count(RMTQueue_Drop)
attr title  "dropped PDUs, last"
scalar randPrefNet.R1I3.ipcProcess[2].relayAndMux.p0.outQ_M 	rmtqueue-drop:last 	-nan
attr source  count(RMTQueue_Drop)
attr title  "dropped PDUs, last"
scalar randPrefNet.R1I3.ipcProcess[2].relayAndMux.p0.inQ_0 	rmtqueue-drop:last 	-nan
attr source  count(RMTQueue_Drop)
attr title  "dropped PDUs, last"
scalar randPrefNet.R1I3.ipcProcess[2].relayAndMux.p0.outQ_0 	rmtqueue-drop:last 	-nan
attr source  count(RMTQueue_Drop)
attr title  "dropped PDUs, last"
scalar randPrefNet.R1I3.ipcProcess[3].relayAndMux.p0.port 	rmtport-down:last 	14
attr source  count(RMTPort_PassDown)
attr title  "msg passed down, last"
scalar randPrefNet.R1I3.ipcProcess[3].relayAndMux.p0.port 	rmtport-up:last 	14
attr ""  ""
attr source  count(RMTPort_PassUp)
attr title  "msg passed up, last"
scalar randPrefNet.R1I3.ipcProcess[3].relayAndMux.p0.inQ_M 	rmtqueue-drop:last 	-nan
attr source  count(RMTQueue_Drop)
attr title  "dropped PDUs, last"
scalar randPrefNet.R1I3.ipcProcess[3].relayAndMux.p0.outQ_M 	rmtqueue-drop:last 	-nan
attr source  count(RMTQueue_Drop)
attr title  "dropped PDUs, last"
scalar randPrefNet.R1I3.ipcProcess[3].relayAndMux.p0.inQ_0 	rmtqueue-drop:last 	-nan
attr source  count(RMTQueue_Drop)
attr title  "dropped PDUs, last"
scalar randPrefNet.R1I3.ipcProcess[3].relayAndMux.p0.outQ_0 	rmtqueue-drop:last 	-nan
attr source  count(RMTQueue_Drop)
attr title  "dropped PDUs, last"
scalar randPrefNet.R1I3.ipcProcess[4].relayAndMux.p0.port 	rmtport-down:last 	14
attr source  count(RMTPort_PassDown)
attr title  "msg passed down, last"
scalar randPrefNet.R1I3.ipcProcess[4].relayAndMux.p0.port 	rmtport-up:last 	14
attr ""  ""
attr source  count(RMTPort_PassUp)
attr title  "msg passed up, last"
scalar randPrefNet.R1I3.ipcProcess[4].relayAndMux.p0.inQ_M 	rmtqueue-drop:last 	-nan
attr source  count(RMTQueue_Drop)
attr title  "dropped PDUs, last"
scalar randPrefNet.R1I3.ipcProcess[4].relayAndMux.p0.outQ_M 	rmtqueue-drop:last 	-nan
attr source  count(RMTQueue_Drop)
attr title  "dropped PDUs, last"
scalar randPrefNet.R1I3.ipcProcess[4].relayAndMux.p0.inQ_0 	rmtqueue-drop:last 	-nan
attr source  count(RMTQueue_Drop)
attr title  "dropped PDUs, last"
scalar randPrefNet.R1I3.ipcProcess[4].relayAndMux.p0.outQ_0 	rmtqueue-drop:last 	-nan
attr source  count(RMTQueue_Drop)
attr title  "dropped PDUs, last"
scalar randPrefNet.R1I3.relayIpc.relayAndMux.p0.port 	rmtport-down:last 	7
attr source  count(RMTPort_PassDown)
attr title  "msg passed down, last"
scalar randPrefNet.R1I3.relayIpc.relayAndMux.p0.port 	rmtport-up:last 	7
attr ""  ""
attr source  count(RMTPort_PassUp)
attr title  "msg passed up, last"
scalar randPrefNet.R1I3.relayIpc.relayAndMux.p0.inQ_M 	rmtqueue-drop:last 	-nan
attr source  count(RMTQueue_Drop)
attr title  "dropped PDUs, last"
scalar randPrefNet.R1I3.relayIpc.relayAndMux.p0.outQ_M 	rmtqueue-drop:last 	-nan
attr source  count(RMTQueue_Drop)
attr title  "dropped PDUs, last"
scalar randPrefNet.R1I3.relayIpc.relayAndMux.p0.inQ_0 	rmtqueue-drop:last 	-nan
attr source  count(RMTQueue_Drop)
attr title  "dropped PDUs, last"
scalar randPrefNet.R1I3.relayIpc.relayAndMux.p0.outQ_0 	rmtqueue-drop:last 	-nan
attr source  count(RMTQueue_Drop)
attr title  "dropped PDUs, last"
scalar randPrefNet.R1I3.relayIpc.relayAndMux.p1.port 	rmtport-down:last 	7
attr source  count(RMTPort_PassDown)
attr title  "msg passed down, last"
scalar randPrefNet.R1I3.relayIpc.relayAndMux.p1.port 	rmtport-up:last 	7
attr ""  ""
attr source  count(RMTPort_PassUp)
attr title  "msg passed up, last"
scalar randPrefNet.R1I3.relayIpc.relayAndMux.p1.inQ_M 	rmtqueue-drop:last 	-nan
attr source  count(RMTQueue_Drop)
attr title  "dropped PDUs, last"
scalar randPrefNet.R1I3.relayIpc.relayAndMux.p1.outQ_M 	rmtqueue-drop:last 	-nan
attr source  count(RMTQueue_Drop)
attr title  "dropped PDUs, last"
scalar randPrefNet.R1I3.relayIpc.relayAndMux.p1.inQ_0 	rmtqueue-drop:last 	-nan
attr source  count(RMTQueue_Drop)
attr title  "dropped PDUs, last"
scalar randPrefNet.R1I3.relayIpc.relayAndMux.p1.outQ_0 	rmtqueue-drop:last 	-nan
attr source  count(RMTQueue_Drop)
attr title  "dropped PDUs, last"
scalar randPrefNet.R1I3.relayIpc.relayAndMux.p2.port 	rmtport-down:last 	7
attr source  count(RMTPort_PassDown)
attr title  "msg passed down, last"
scalar randPrefNet.R1I3.relayIpc.relayAndMux.p2.port 	rmtport-up:last 	6
attr ""  ""
attr source  count(RMTPort_PassUp)
attr title  "msg passed up, last"
scalar randPrefNet.R1I3.relayIpc.relayAndMux.p2.inQ_M 	rmtqueue-drop:last 	-nan
attr source  count(RMTQueue_Drop)
attr title  "dropped PDUs, last"
scalar randPrefNet.R1I3.relayIpc.relayAndMux.p2.outQ_M 	rmtqueue-drop:last 	-nan
attr source  count(RMTQueue_Drop)
attr title  "dropped PDUs, last"
scalar randPrefNet.R1I3.relayIpc.relayAndMux.p2.inQ_0 	rmtqueue-drop:last 	-nan
attr source  count(RMTQueue_Drop)
attr title  "dropped PDUs, last"
scalar randPrefNet.R1I3.relayIpc.relayAndMux.p2.outQ_0 	rmtqueue-drop:last 	-nan
attr source  count(RMTQueue_Drop)
attr title  "dropped PDUs, last"
scalar randPrefNet.R1I3.relayIpc.relayAndMux.p3.port 	rmtport-down:last 	7
attr source  count(RMTPort_PassDown)
attr title  "msg passed down, last"
scalar randPrefNet.R1I3.relayIpc.relayAndMux.p3.port 	rmtport-up:last 	6
attr ""  ""
attr source  count(RMTPort_PassUp)
attr title  "msg passed up, last"
scalar randPrefNet.R1I3.relayIpc.relayAndMux.p3.inQ_M 	rmtqueue-drop:last 	-nan
attr source  count(RMTQueue_Drop)
attr title  "dropped PDUs, last"
scalar randPrefNet.R1I3.relayIpc.relayAndMux.p3.outQ_M 	rmtqueue-drop:last 	-nan
attr source  count(RMTQueue_Drop)
attr title  "dropped PDUs, last"
scalar randPrefNet.R1I3.relayIpc.relayAndMux.p3.inQ_0 	rmtqueue-drop:last 	-nan
attr source  count(RMTQueue_Drop)
attr title  "dropped PDUs, last"
scalar randPrefNet.R1I3.relayIpc.relayAndMux.p3.outQ_0 	rmtqueue-drop:last 	-nan
attr source  count(RMTQueue_Drop)
attr title  "dropped PDUs, last"
scalar randPrefNet.R1I3.relayIpc.relayAndMux.p4.port 	rmtport-down:last 	7
attr source  count(RMTPort_PassDown)
attr title  "msg passed down, last"
scalar randPrefNet.R1I3.relayIpc.relayAndMux.p4.port 	rmtport-up:last 	6
attr ""  ""
attr source  count(RMTPort_PassUp)
attr title  "msg passed up, last"
scalar randPrefNet.R1I3.relayIpc.relayAndMux.p4.inQ_M 	rmtqueue-drop:last 	-nan
attr source  count(RMTQueue_Drop)
attr title  "dropped PDUs, last"
scalar randPrefNet.R1I3.relayIpc.relayAndMux.p4.outQ_M 	rmtqueue-drop:last 	-nan
attr source  count(RMTQueue_Drop)
attr title  "dropped PDUs, last"
scalar randPrefNet.R1I3.relayIpc.relayAndMux.p4.inQ_0 	rmtqueue-drop:last 	-nan
attr source  count(RMTQueue_Drop)
attr title  "dropped PDUs, last"
scalar randPrefNet.R1I3.relayIpc.relayAndMux.p4.outQ_0 	rmtqueue-drop:last 	-nan
attr source  count(RMTQueue_Drop)
attr title  "dropped PDUs, last"
scalar randPrefNet.R1I4.ipcProcess[0].relayAndMux.p0.port 	rmtport-down:last 	15
attr source  count(RMTPort_PassDown)
attr title  "msg passed down, last"
scalar randPrefNet.R1I4.ipcProcess[0].relayAndMux.p0.port 	rmtport-up:last 	15
attr ""  ""
attr source  count(RMTPort_PassUp)
attr title  "msg passed up, last"
scalar randPrefNet.R1I4.ipcProcess[0].relayAndMux.p0.inQ_M 	rmtqueue-drop:last 	-nan
attr source  count(RMTQueue_Drop)
attr title  "dropped PDUs, last"
scalar randPrefNet.R1I4.ipcProcess[0].relayAndMux.p0.outQ_M 	rmtqueue-drop:last 	-nan
attr source  count(RMTQueue_Drop)
attr title  "dropped PDUs, last"
scalar randPrefNet.R1I4.ipcProcess[0].relayAndMux.p0.inQ_0 	rmtqueue-drop:last 	-nan
attr source  count(RMTQueue_Drop)
attr title  "dropped PDUs, last"
scalar randPrefNet.R1I4.ipcProcess[0].relayAndMux.p0.outQ_0 	rmtqueue-drop:last 	-nan
attr source  count(RMTQueue_Drop)
attr title  "dropped PDUs, last"
scalar randPrefNet.R1I4.ipcProcess[1].relayAndMux.p0.port 	rmtport-down:last 	15
attr source  count(RMTPort_PassDown)
attr title  "msg passed down, last"
scalar randPrefNet.R1I4.ipcProcess[1].relayAndMux.p0.port 	rmtport-up:last 	15
attr ""  ""
attr source  count(RMTPort_PassUp)
attr title  "msg passed up, last"
scalar randPrefNet.R1I4.ipcProcess[1].relayAndMux.p0.inQ_M 	rmtqueue-drop:last 	-nan
attr source  count(RMTQueue_Drop)
attr title  "dropped PDUs, last"
scalar randPrefNet.R1I4.ipcProcess[1].relayAndMux.p0.outQ_M 	rmtqueue-drop:last 	-nan
attr source  count(RMTQueue_Drop)
attr title  "dropped PDUs, last"
scalar randPrefNet.R1I4.ipcProcess[1].relayAndMux.p0.inQ_0 	rmtqueue-drop:last 	-nan
attr source  count(RMTQueue_Drop)
attr title  "dropped PDUs, last"
scalar randPrefNet.R1I4.ipcProcess[1].relayAndMux.p0.outQ_0 	rmtqueue-drop:last 	-nan
attr source  count(RMTQueue_Drop)
attr title  "dropped PDUs, last"
scalar randPrefNet.R1I4.ipcProcess[2].relayAndMux.p0.port 	rmtport-down:last 	14
attr source  count(RMTPort_PassDown)
attr title  "msg passed down, last"
scalar randPrefNet.R1I4.ipcProcess[2].relayAndMux.p0.port 	rmtport-up:last 	14
attr ""  ""
attr source  count(RMTPort_PassUp)
attr title  "msg passed up, last"
scalar randPrefNet.R1I4.ipcProcess[2].relayAndMux.p0.inQ_M 	rmtqueue-drop:last 	-nan
attr source  count(RMTQueue_Drop)
attr title  "dropped PDUs, last"
scalar randPrefNet.R1I4.ipcProcess[2].relayAndMux.p0.outQ_M 	rmtqueue-drop:last 	-nan
attr source  count(RMTQueue_Drop)
attr title  "dropped PDUs, last"
scalar randPrefNet.R1I4.ipcProcess[2].relayAndMux.p0.inQ_0 	rmtqueue-drop:last 	-nan
attr source  count(RMTQueue_Drop)
attr title  "dropped PDUs, last"
scalar randPrefNet.R1I4.ipcProcess[2].relayAndMux.p0.outQ_0 	rmtqueue-drop:last 	-nan
attr source  count(RMTQueue_Drop)
attr title  "dropped PDUs, last"
scalar randPrefNet.R1I4.ipcProcess[3].relayAndMux.p0.port 	rmtport-down:last 	14
attr source  count(RMTPort_PassDown)
attr title  "msg passed down, last"
scalar randPrefNet.R1I4.ipcProcess[3].relayAndMux.p0.port 	rmtport-up:last 	14
attr ""  ""
attr source  count(RMTPort_PassUp)
attr title  "msg passed up, last"
scalar randPrefNet.R1I4.ipcProcess[3].relayAndMux.p0.inQ_M 	rmtqueue-drop:last 	-nan
attr source  count(RMTQueue_Drop)
attr title  "dropped PDUs, last"
scalar randPrefNet.R1I4.ipcProcess[3].relayAndMux.p0.outQ_M 	rmtqueue-drop:last 	-nan
attr source  count(RMTQueue_Drop)
attr title  "dropped PDUs, last"
scalar randPrefNet.R1I4.ipcProcess[3].relayAndMux.p0.inQ_0 	rmtqueue-drop:last 	-nan
attr source  count(RMTQueue_Drop)
attr title  "dropped PDUs, last"
scalar randPrefNet.R1I4.ipcProcess[3].relayAndMux.p0.outQ_0 	rmtqueue-drop:last 	-nan
attr source  count(RMTQueue_Drop)
attr title  "dropped PDUs, last"
scalar randPrefNet.R1I4.ipcProcess[4].relayAndMux.p0.port 	rmtport-down:last 	14
attr source  count(RMTPort_PassDown)
attr title  "msg passed down, last"
scalar randPrefNet.R1I4.ipcProcess[4].relayAndMux.p0.port 	rmtport-up:last 	14
attr ""  ""
attr source  count(RMTPort_PassUp)
attr title  "msg passed up, last"
scalar randPrefNet.R1I4.ipcProcess[4].relayAndMux.p0.inQ_M 	rmtqueue-drop:last 	-nan
attr source  count(RMTQueue_Drop)
attr title  "dropped PDUs, last"
scalar randPrefNet.R1I4.ipcProcess[4].relayAndMux.p0.outQ_M 	rmtqueue-drop:last 	-nan
attr source  count(RMTQueue_Drop)
attr title  "dropped PDUs, last"
scalar randPrefNet.R1I4.ipcProcess[4].relayAndMux.p0.inQ_0 	rmtqueue-drop:last 	-nan
attr source  count(RMTQueue_Drop)
attr title  "dropped PDUs, last"
scalar randPrefNet.R1I4.ipcProcess[4].relayAndMux.p0.outQ_0 	rmtqueue-drop:last 	-nan
attr source  count(RMTQueue_Drop)
attr title  "dropped PDUs, last"
scalar randPrefNet.R1I4.ipcProcess[5].relayAndMux.p0.port 	rmtport-down:last 	14
attr source  count(RMTPort_PassDown)
attr title  "msg passed down, last"
scalar randPrefNet.R1I4.ipcProcess[5].relayAndMux.p0.port 	rmtport-up:last 	14
attr ""  ""
attr source  count(RMTPort_PassUp)
attr title  "msg passed up, last"
scalar randPrefNet.R1I4.ipcProcess[5].relayAndMux.p0.inQ_M 	rmtqueue-drop:last 	-nan
attr source  count(RMTQueue_Drop)
attr title  "dropped PDUs, last"
scalar randPrefNet.R1I4.ipcProcess[5].relayAndMux.p0.outQ_M 	rmtqueue-drop:last 	-nan
attr source  count(RMTQueue_Drop)
attr title  "dropped PDUs, last"
scalar randPrefNet.R1I4.ipcProcess[5].relayAndMux.p0.inQ_0 	rmtqueue-drop:last 	-nan
attr source  count(RMTQueue_Drop)
attr title  "dropped PDUs, last"
scalar randPrefNet.R1I4.ipcProcess[5].relayAndMux.p0.outQ_0 	rmtqueue-drop:last 	-nan
attr source  count(RMTQueue_Drop)
attr title  "dropped PDUs, last"
scalar randPrefNet.R1I4.relayIpc.relayAndMux.p0.port 	rmtport-down:last 	7
attr source  count(RMTPort_PassDown)
attr title  "msg passed down, last"
scalar randPrefNet.R1I4.relayIpc.relayAndMux.p0.port 	rmtport-up:last 	6
attr ""  ""
attr source  count(RMTPort_PassUp)
attr title  "msg passed up, last"
scalar randPrefNet.R1I4.relayIpc.relayAndMux.p0.inQ_M 	rmtqueue-drop:last 	-nan
attr source  count(RMTQueue_Drop)
attr title  "dropped PDUs, last"
scalar randPrefNet.R1I4.relayIpc.relayAndMux.p0.outQ_M 	rmtqueue-drop:last 	-nan
attr source  count(RMTQueue_Drop)
attr title  "dropped PDUs, last"
scalar randPrefNet.R1I4.relayIpc.relayAndMux.p0.inQ_0 	rmtqueue-drop:last 	-nan
attr source  count(RMTQueue_Drop)
attr title  "dropped PDUs, last"
scalar randPrefNet.R1I4.relayIpc.relayAndMux.p0.outQ_0 	rmtqueue-drop:last 	-nan
attr source  count(RMTQueue_Drop)
attr title  "dropped PDUs, last"
scalar randPrefNet.R1I4.relayIpc.relayAndMux.p1.port 	rmtport-down:last 	7
attr source  count(RMTPort_PassDown)
attr title  "msg passed down, last"
scalar randPrefNet.R1I4.relayIpc.relayAndMux.p1.port 	rmtport-up:last 	6
attr ""  ""
attr source  count(RMTPort_PassUp)
attr title  "msg passed up, last"
scalar randPrefNet.R1I4.relayIpc.relayAndMux.p1.inQ_M 	rmtqueue-drop:last 	-nan
attr source  count(RMTQueue_Drop)
attr title  "dropped PDUs, last"
scalar randPrefNet.R1I4.relayIpc.relayAndMux.p1.outQ_M 	rmtqueue-drop:last 	-nan
attr source  count(RMTQueue_Drop)
attr title  "dropped PDUs, last"
scalar randPrefNet.R1I4.relayIpc.relayAndMux.p1.inQ_0 	rmtqueue-drop:last 	-nan
attr source  count(RMTQueue_Drop)
attr title  "dropped PDUs, last"
scalar randPrefNet.R1I4.relayIpc.relayAndMux.p1.outQ_0 	rmtqueue-drop:last 	-nan
attr source  count(RMTQueue_Drop)
attr title  "dropped PDUs, last"
scalar randPrefNet.R1I4.relayIpc.relayAndMux.p2.port 	rmtport-down:last 	7
attr source  count(RMTPort_PassDown)
attr title  "msg passed down, last"
scalar randPrefNet.R1I4.relayIpc.relayAndMux.p2.port 	rmtport-up:last 	6
attr ""  ""
attr source  count(RMTPort_PassUp)
attr title  "msg passed up, last"
scalar randPrefNet.R1I4.relayIpc.relayAndMux.p2.inQ_M 	rmtqueue-drop:last 	-nan
attr source  count(RMTQueue_Drop)
attr title  "dropped PDUs, last"
scalar randPrefNet.R1I4.relayIpc.relayAndMux.p2.outQ_M 	rmtqueue-drop:last 	-nan
attr source  count(RMTQueue_Drop)
attr title  "dropped PDUs, last"
scalar randPrefNet.R1I4.relayIpc.relayAndMux.p2.inQ_0 	rmtqueue-drop:last 	-nan
attr source  count(RMTQueue_Drop)
attr title  "dropped PDUs, last"
scalar randPrefNet.R1I4.relayIpc.relayAndMux.p2.outQ_0 	rmtqueue-drop:last 	-nan
attr source  count(RMTQueue_Drop)
attr title  "dropped PDUs, last"
scalar randPrefNet.R1I4.relayIpc.relayAndMux.p3.port 	rmtport-down:last 	7
attr source  count(RMTPort_PassDown)
attr title  "msg passed down, last"
scalar randPrefNet.R1I4.relayIpc.relayAndMux.p3.port 	rmtport-up:last 	6
attr ""  ""
attr source  count(RMTPort_PassUp)
attr title  "msg passed up, last"
scalar randPrefNet.R1I4.relayIpc.relayAndMux.p3.inQ_M 	rmtqueue-drop:last 	-nan
attr source  count(RMTQueue_Drop)
attr title  "dropped PDUs, last"
scalar randPrefNet.R1I4.relayIpc.relayAndMux.p3.outQ_M 	rmtqueue-drop:last 	-nan
attr source  count(RMTQueue_Drop)
attr title  "dropped PDUs, last"
scalar randPrefNet.R1I4.relayIpc.relayAndMux.p3.inQ_0 	rmtqueue-drop:last 	-nan
attr source  count(RMTQueue_Drop)
attr title  "dropped PDUs, last"
scalar randPrefNet.R1I4.relayIpc.relayAndMux.p3.outQ_0 	rmtqueue-drop:last 	-nan
attr source  count(RMTQueue_Drop)
attr title  "dropped PDUs, last"
scalar randPrefNet.R1I4.relayIpc.relayAndMux.p4.port 	rmtport-down:last 	7
attr source  count(RMTPort_PassDown)
attr title  "msg passed down, last"
scalar randPrefNet.R1I4.relayIpc.relayAndMux.p4.port 	rmtport-up:last 	7
attr ""  ""
attr source  count(RMTPort_PassUp)
attr title  "msg passed up, last"
scalar randPrefNet.R1I4.relayIpc.relayAndMux.p4.inQ_M 	rmtqueue-drop:last 	-nan
attr source  count(RMTQueue_Drop)
attr title  "dropped PDUs, last"
scalar randPrefNet.R1I4.relayIpc.relayAndMux.p4.outQ_M 	rmtqueue-drop:last 	-nan
attr source  count(RMTQueue_Drop)
attr title  "dropped PDUs, last"
scalar randPrefNet.R1I4.relayIpc.relayAndMux.p4.inQ_0 	rmtqueue-drop:last 	-nan
attr source  count(RMTQueue_Drop)
attr title  "dropped PDUs, last"
scalar randPrefNet.R1I4.relayIpc.relayAndMux.p4.outQ_0 	rmtqueue-drop:last 	-nan
attr source  count(RMTQueue_Drop)
attr title  "dropped PDUs, last"
scalar randPrefNet.R1I4.relayIpc.relayAndMux.p5.port 	rmtport-down:last 	7
attr source  count(RMTPort_PassDown)
attr title  "msg passed down, last"
scalar randPrefNet.R1I4.relayIpc.relayAndMux.p5.port 	rmtport-up:last 	7
attr ""  ""
attr source  count(RMTPort_PassUp)
attr title  "msg passed up, last"
scalar randPrefNet.R1I4.relayIpc.relayAndMux.p5.inQ_M 	rmtqueue-drop:last 	-nan
attr source  count(RMTQueue_Drop)
attr title  "dropped PDUs, last"
scalar randPrefNet.R1I4.relayIpc.relayAndMux.p5.outQ_M 	rmtqueue-drop:last 	-nan
attr source  count(RMTQueue_Drop)
attr title  "dropped PDUs, last"
scalar randPrefNet.R1I4.relayIpc.relayAndMux.p5.inQ_0 	rmtqueue-drop:last 	-nan
attr source  count(RMTQueue_Drop)
attr title  "dropped PDUs, last"
scalar randPrefNet.R1I4.relayIpc.relayAndMux.p5.outQ_0 	rmtqueue-drop:last 	-nan
attr source  count(RMTQueue_Drop)
attr title  "dropped PDUs, last"
scalar randPrefNet.R1I5.ipcProcess[0].relayAndMux.p0.port 	rmtport-down:last 	15
attr source  count(RMTPort_PassDown)
attr title  "msg passed down, last"
scalar randPrefNet.R1I5.ipcProcess[0].relayAndMux.p0.port 	rmtport-up:last 	15
attr ""  ""
attr source  count(RMTPort_PassUp)
attr title  "msg passed up, last"
scalar randPrefNet.R1I5.ipcProcess[0].relayAndMux.p0.inQ_M 	rmtqueue-drop:last 	-nan
attr source  count(RMTQueue_Drop)
attr title  "dropped PDUs, last"
scalar randPrefNet.R1I5.ipcProcess[0].relayAndMux.p0.outQ_M 	rmtqueue-drop:last 	-nan
attr source  count(RMTQueue_Drop)
attr title  "dropped PDUs, last"
scalar randPrefNet.R1I5.ipcProcess[0].relayAndMux.p0.inQ_0 	rmtqueue-drop:last 	-nan
attr source  count(RMTQueue_Drop)
attr title  "dropped PDUs, last"
scalar randPrefNet.R1I5.ipcProcess[0].relayAndMux.p0.outQ_0 	rmtqueue-drop:last 	-nan
attr source  count(RMTQueue_Drop)
attr title  "dropped PDUs, last"
scalar randPrefNet.R1I5.ipcProcess[1].relayAndMux.p0.port 	rmtport-down:last 	15
attr source  count(RMTPort_PassDown)
attr title  "msg passed down, last"
scalar randPrefNet.R1I5.ipcProcess[1].relayAndMux.p0.port 	rmtport-up:last 	15
attr ""  ""
attr source  count(RMTPort_PassUp)
attr title  "msg passed up, last"
scalar randPrefNet.R1I5.ipcProcess[1].relayAndMux.p0.inQ_M 	rmtqueue-drop:last 	-nan
attr source  count(RMTQueue_Drop)
attr title  "dropped PDUs, last"
scalar randPrefNet.R1I5.ipcProcess[1].relayAndMux.p0.outQ_M 	rmtqueue-drop:last 	-nan
attr source  count(RMTQueue_Drop)
attr title  "dropped PDUs, last"
scalar randPrefNet.R1I5.ipcProcess[1].relayAndMux.p0.inQ_0 	rmtqueue-drop:last 	-nan
attr source  count(RMTQueue_Drop)
attr title  "dropped PDUs, last"
scalar randPrefNet.R1I5.ipcProcess[1].relayAndMux.p0.outQ_0 	rmtqueue-drop:last 	-nan
attr source  count(RMTQueue_Drop)
attr title  "dropped PDUs, last"
scalar randPrefNet.R1I5.ipcProcess[2].relayAndMux.p0.port 	rmtport-down:last 	14
attr source  count(RMTPort_PassDown)
attr title  "msg passed down, last"
scalar randPrefNet.R1I5.ipcProcess[2].relayAndMux.p0.port 	rmtport-up:last 	14
attr ""  ""
attr source  count(RMTPort_PassUp)
attr title  "msg passed up, last"
scalar randPrefNet.R1I5.ipcProcess[2].relayAndMux.p0.inQ_M 	rmtqueue-drop:last 	-nan
attr source  count(RMTQueue_Drop)
attr title  "dropped PDUs, last"
scalar randPrefNet.R1I5.ipcProcess[2].relayAndMux.p0.outQ_M 	rmtqueue-drop:last 	-nan
attr source  count(RMTQueue_Drop)
attr title  "dropped PDUs, last"
scalar randPrefNet.R1I5.ipcProcess[2].relayAndMux.p0.inQ_0 	rmtqueue-drop:last 	-nan
attr source  count(RMTQueue_Drop)
attr title  "dropped PDUs, last"
scalar randPrefNet.R1I5.ipcProcess[2].relayAndMux.p0.outQ_0 	rmtqueue-drop:last 	-nan
attr source  count(RMTQueue_Drop)
attr title  "dropped PDUs, last"
scalar randPrefNet.R1I5.ipcProcess[3].relayAndMux.p0.port 	rmtport-down:last 	14
attr source  count(RMTPort_PassDown)
attr title  "msg passed down, last"
scalar randPrefNet.R1I5.ipcProcess[3].relayAndMux.p0.port 	rmtport-up:last 	14
attr ""  ""
attr source  count(RMTPort_PassUp)
attr title  "msg passed up, last"
scalar randPrefNet.R1I5.ipcProcess[3].relayAndMux.p0.inQ_M 	rmtqueue-drop:last 	-nan
attr source  count(RMTQueue_Drop)
attr title  "dropped PDUs, last"
scalar randPrefNet.R1I5.ipcProcess[3].relayAndMux.p0.outQ_M 	rmtqueue-drop:last 	-nan
attr source  count(RMTQueue_Drop)
attr title  "dropped PDUs, last"
scalar randPrefNet.R1I5.ipcProcess[3].relayAndMux.p0.inQ_0 	rmtqueue-drop:last 	-nan
attr source  count(RMTQueue_Drop)
attr title  "dropped PDUs, last"
scalar randPrefNet.R1I5.ipcProcess[3].relayAndMux.p0.outQ_0 	rmtqueue-drop:last 	-nan
attr source  count(RMTQueue_Drop)
attr title  "dropped PDUs, last"
scalar randPrefNet.R1I5.relayIpc.relayAndMux.p0.port 	rmtport-down:last 	7
attr source  count(RMTPort_PassDown)
attr title  "msg passed down, last"
scalar randPrefNet.R1I5.relayIpc.relayAndMux.p0.port 	rmtport-up:last 	7
attr ""  ""
attr source  count(RMTPort_PassUp)
attr title  "msg passed up, last"
scalar randPrefNet.R1I5.relayIpc.relayAndMux.p0.inQ_M 	rmtqueue-drop:last 	-nan
attr source  count(RMTQueue_Drop)
attr title  "dropped PDUs, last"
scalar randPrefNet.R1I5.relayIpc.relayAndMux.p0.outQ_M 	rmtqueue-drop:last 	-nan
attr source  count(RMTQueue_Drop)
attr title  "dropped PDUs, last"
scalar randPrefNet.R1I5.relayIpc.relayAndMux.p0.inQ_0 	rmtqueue-drop:last 	-nan
attr source  count(RMTQueue_Drop)
attr title  "dropped PDUs, last"
scalar randPrefNet.R1I5.relayIpc.relayAndMux.p0.outQ_0 	rmtqueue-drop:last 	-nan
attr source  count(RMTQueue_Drop)
attr title  "dropped PDUs, last"
scalar randPrefNet.R1I5.relayIpc.relayAndMux.p1.port 	rmtport-down:last 	7
attr source  count(RMTPort_PassDown)
attr title  "msg passed down, last"
scalar randPrefNet.R1I5.relayIpc.relayAndMux.p1.port 	rmtport-up:last 	6
attr ""  ""
attr source  count(RMTPort_PassUp)
attr title  "msg passed up, last"
scalar randPrefNet.R1I5.relayIpc.relayAndMux.p1.inQ_M 	rmtqueue-drop:last 	-nan
attr source  count(RMTQueue_Drop)
attr title  "dropped PDUs, last"
scalar randPrefNet.R1I5.relayIpc.relayAndMux.p1.outQ_M 	rmtqueue-drop:last 	-nan
attr source  count(RMTQueue_Drop)
attr title  "dropped PDUs, last"
scalar randPrefNet.R1I5.relayIpc.relayAndMux.p1.inQ_0 	rmtqueue-drop:last 	-nan
attr source  count(RMTQueue_Drop)
attr title  "dropped PDUs, last"
scalar randPrefNet.R1I5.relayIpc.relayAndMux.p1.outQ_0 	rmtqueue-drop:last 	-nan
attr source  count(RMTQueue_Drop)
attr title  "dropped PDUs, last"
scalar randPrefNet.R1I5.relayIpc.relayAndMux.p2.port 	rmtport-down:last 	7
attr source  count(RMTPort_PassDown)
attr title  "msg passed down, last"
scalar randPrefNet.R1I5.relayIpc.relayAndMux.p2.port 	rmtport-up:last 	6
attr ""  ""
attr source  count(RMTPort_PassUp)
attr title  "msg passed up, last"
scalar randPrefNet.R1I5.relayIpc.relayAndMux.p2.inQ_M 	rmtqueue-drop:last 	-nan
attr source  count(RMTQueue_Drop)
attr title  "dropped PDUs, last"
scalar randPrefNet.R1I5.relayIpc.relayAndMux.p2.outQ_M 	rmtqueue-drop:last 	-nan
attr source  count(RMTQueue_Drop)
attr title  "dropped PDUs, last"
scalar randPrefNet.R1I5.relayIpc.relayAndMux.p2.inQ_0 	rmtqueue-drop:last 	-nan
attr source  count(RMTQueue_Drop)
attr title  "dropped PDUs, last"
scalar randPrefNet.R1I5.relayIpc.relayAndMux.p2.outQ_0 	rmtqueue-drop:last 	-nan
attr source  count(RMTQueue_Drop)
attr title  "dropped PDUs, last"
scalar randPrefNet.R1I5.relayIpc.relayAndMux.p3.port 	rmtport-down:last 	7
attr source  count(RMTPort_PassDown)
attr title  "msg passed down, last"
scalar randPrefNet.R1I5.relayIpc.relayAndMux.p3.port 	rmtport-up:last 	7
attr ""  ""
attr source  count(RMTPort_PassUp)
attr title  "msg passed up, last"
scalar randPrefNet.R1I5.relayIpc.relayAndMux.p3.inQ_M 	rmtqueue-drop:last 	-nan
attr source  count(RMTQueue_Drop)
attr title  "dropped PDUs, last"
scalar randPrefNet.R1I5.relayIpc.relayAndMux.p3.outQ_M 	rmtqueue-drop:last 	-nan
attr source  count(RMTQueue_Drop)
attr title  "dropped PDUs, last"
scalar randPrefNet.R1I5.relayIpc.relayAndMux.p3.inQ_0 	rmtqueue-drop:last 	-nan
attr source  count(RMTQueue_Drop)
attr title  "dropped PDUs, last"
scalar randPrefNet.R1I5.relayIpc.relayAndMux.p3.outQ_0 	rmtqueue-drop:last 	-nan
attr source  count(RMTQueue_Drop)
attr title  "dropped PDUs, last"
scalar randPrefNet.R1I6.ipcProcess[0].relayAndMux.p0.port 	rmtport-down:last 	15
attr source  count(RMTPort_PassDown)
attr title  "msg passed down, last"
scalar randPrefNet.R1I6.ipcProcess[0].relayAndMux.p0.port 	rmtport-up:last 	15
attr ""  ""
attr source  count(RMTPort_PassUp)
attr title  "msg passed up, last"
scalar randPrefNet.R1I6.ipcProcess[0].relayAndMux.p0.inQ_M 	rmtqueue-drop:last 	-nan
attr source  count(RMTQueue_Drop)
attr title  "dropped PDUs, last"
scalar randPrefNet.R1I6.ipcProcess[0].relayAndMux.p0.outQ_M 	rmtqueue-drop:last 	-nan
attr source  count(RMTQueue_Drop)
attr title  "dropped PDUs, last"
scalar randPrefNet.R1I6.ipcProcess[0].relayAndMux.p0.inQ_0 	rmtqueue-drop:last 	-nan
attr source  count(RMTQueue_Drop)
attr title  "dropped PDUs, last"
scalar randPrefNet.R1I6.ipcProcess[0].relayAndMux.p0.outQ_0 	rmtqueue-drop:last 	-nan
attr source  count(RMTQueue_Drop)
attr title  "dropped PDUs, last"
scalar randPrefNet.R1I6.ipcProcess[1].relayAndMux.p0.port 	rmtport-down:last 	15
attr source  count(RMTPort_PassDown)
attr title  "msg passed down, last"
scalar randPrefNet.R1I6.ipcProcess[1].relayAndMux.p0.port 	rmtport-up:last 	15
attr ""  ""
attr source  count(RMTPort_PassUp)
attr title  "msg passed up, last"
scalar randPrefNet.R1I6.ipcProcess[1].relayAndMux.p0.inQ_M 	rmtqueue-drop:last 	-nan
attr source  count(RMTQueue_Drop)
attr title  "dropped PDUs, last"
scalar randPrefNet.R1I6.ipcProcess[1].relayAndMux.p0.outQ_M 	rmtqueue-drop:last 	-nan
attr source  count(RMTQueue_Drop)
attr title  "dropped PDUs, last"
scalar randPrefNet.R1I6.ipcProcess[1].relayAndMux.p0.inQ_0 	rmtqueue-drop:last 	-nan
attr source  count(RMTQueue_Drop)
attr title  "dropped PDUs, last"
scalar randPrefNet.R1I6.ipcProcess[1].relayAndMux.p0.outQ_0 	rmtqueue-drop:last 	-nan
attr source  count(RMTQueue_Drop)
attr title  "dropped PDUs, last"
scalar randPrefNet.R1I6.ipcProcess[2].relayAndMux.p0.port 	rmtport-down:last 	14
attr source  count(RMTPort_PassDown)
attr title  "msg passed down, last"
scalar randPrefNet.R1I6.ipcProcess[2].relayAndMux.p0.port 	rmtport-up:last 	14
attr ""  ""
attr source  count(RMTPort_PassUp)
attr title  "msg passed up, last"
scalar randPrefNet.R1I6.ipcProcess[2].relayAndMux.p0.inQ_M 	rmtqueue-drop:last 	-nan
attr source  count(RMTQueue_Drop)
attr title  "dropped PDUs, last"
scalar randPrefNet.R1I6.ipcProcess[2].relayAndMux.p0.outQ_M 	rmtqueue-drop:last 	-nan
attr source  count(RMTQueue_Drop)
attr title  "dropped PDUs, last"
scalar randPrefNet.R1I6.ipcProcess[2].relayAndMux.p0.inQ_0 	rmtqueue-drop:last 	-nan
attr source  count(RMTQueue_Drop)
attr title  "dropped PDUs, last"
scalar randPrefNet.R1I6.ipcProcess[2].relayAndMux.p0.outQ_0 	rmtqueue-drop:last 	-nan
attr source  count(RMTQueue_Drop)
attr title  "dropped PDUs, last"
scalar randPrefNet.R1I6.ipcProcess[3].relayAndMux.p0.port 	rmtport-down:last 	14
attr source  count(RMTPort_PassDown)
attr title  "msg passed down, last"
scalar randPrefNet.R1I6.ipcProcess[3].relayAndMux.p0.port 	rmtport-up:last 	14
attr ""  ""
attr source  count(RMTPort_PassUp)
attr title  "msg passed up, last"
scalar randPrefNet.R1I6.ipcProcess[3].relayAndMux.p0.inQ_M 	rmtqueue-drop:last 	-nan
attr source  count(RMTQueue_Drop)
attr title  "dropped PDUs, last"
scalar randPrefNet.R1I6.ipcProcess[3].relayAndMux.p0.outQ_M 	rmtqueue-drop:last 	-nan
attr source  count(RMTQueue_Drop)
attr title  "dropped PDUs, last"
scalar randPrefNet.R1I6.ipcProcess[3].relayAndMux.p0.inQ_0 	rmtqueue-drop:last 	-nan
attr source  count(RMTQueue_Drop)
attr title  "dropped PDUs, last"
scalar randPrefNet.R1I6.ipcProcess[3].relayAndMux.p0.outQ_0 	rmtqueue-drop:last 	-nan
attr source  count(RMTQueue_Drop)
attr title  "dropped PDUs, last"
scalar randPrefNet.R1I6.ipcProcess[4].relayAndMux.p0.port 	rmtport-down:last 	15
attr source  count(RMTPort_PassDown)
attr title  "msg passed down, last"
scalar randPrefNet.R1I6.ipcProcess[4].relayAndMux.p0.port 	rmtport-up:last 	15
attr ""  ""
attr source  count(RMTPort_PassUp)
attr title  "msg passed up, last"
scalar randPrefNet.R1I6.ipcProcess[4].relayAndMux.p0.inQ_M 	rmtqueue-drop:last 	-nan
attr source  count(RMTQueue_Drop)
attr title  "dropped PDUs, last"
scalar randPrefNet.R1I6.ipcProcess[4].relayAndMux.p0.outQ_M 	rmtqueue-drop:last 	-nan
attr source  count(RMTQueue_Drop)
attr title  "dropped PDUs, last"
scalar randPrefNet.R1I6.ipcProcess[4].relayAndMux.p0.inQ_0 	rmtqueue-drop:last 	-nan
attr source  count(RMTQueue_Drop)
attr title  "dropped PDUs, last"
scalar randPrefNet.R1I6.ipcProcess[4].relayAndMux.p0.outQ_0 	rmtqueue-drop:last 	-nan
attr source  count(RMTQueue_Drop)
attr title  "dropped PDUs, last"
scalar randPrefNet.R1I6.ipcProcess[5].relayAndMux.p0.port 	rmtport-down:last 	14
attr source  count(RMTPort_PassDown)
attr title  "msg passed down, last"
scalar randPrefNet.R1I6.ipcProcess[5].relayAndMux.p0.port 	rmtport-up:last 	14
attr ""  ""
attr source  count(RMTPort_PassUp)
attr title  "msg passed up, last"
scalar randPrefNet.R1I6.ipcProcess[5].relayAndMux.p0.inQ_M 	rmtqueue-drop:last 	-nan
attr source  count(RMTQueue_Drop)
attr title  "dropped PDUs, last"
scalar randPrefNet.R1I6.ipcProcess[5].relayAndMux.p0.outQ_M 	rmtqueue-drop:last 	-nan
attr source  count(RMTQueue_Drop)
attr title  "dropped PDUs, last"
scalar randPrefNet.R1I6.ipcProcess[5].relayAndMux.p0.inQ_0 	rmtqueue-drop:last 	-nan
attr source  count(RMTQueue_Drop)
attr title  "dropped PDUs, last"
scalar randPrefNet.R1I6.ipcProcess[5].relayAndMux.p0.outQ_0 	rmtqueue-drop:last 	-nan
attr source  count(RMTQueue_Drop)
attr title  "dropped PDUs, last"
scalar randPrefNet.R1I6.relayIpc.relayAndMux.p0.port 	rmtport-down:last 	7
attr source  count(RMTPort_PassDown)
attr title  "msg passed down, last"
scalar randPrefNet.R1I6.relayIpc.relayAndMux.p0.port 	rmtport-up:last 	6
attr ""  ""
attr source  count(RMTPort_PassUp)
attr title  "msg passed up, last"
scalar randPrefNet.R1I6.relayIpc.relayAndMux.p0.inQ_M 	rmtqueue-drop:last 	-nan
attr source  count(RMTQueue_Drop)
attr title  "dropped PDUs, last"
scalar randPrefNet.R1I6.relayIpc.relayAndMux.p0.outQ_M 	rmtqueue-drop:last 	-nan
attr source  count(RMTQueue_Drop)
attr title  "dropped PDUs, last"
scalar randPrefNet.R1I6.relayIpc.relayAndMux.p0.inQ_0 	rmtqueue-drop:last 	-nan
attr source  count(RMTQueue_Drop)
attr title  "dropped PDUs, last"
scalar randPrefNet.R1I6.relayIpc.relayAndMux.p0.outQ_0 	rmtqueue-drop:last 	-nan
attr source  count(RMTQueue_Drop)
attr title  "dropped PDUs, last"
scalar randPrefNet.R1I6.relayIpc.relayAndMux.p1.port 	rmtport-down:last 	7
attr source  count(RMTPort_PassDown)
attr title  "msg passed down, last"
scalar randPrefNet.R1I6.relayIpc.relayAndMux.p1.port 	rmtport-up:last 	6
attr ""  ""
attr source  count(RMTPort_PassUp)
attr title  "msg passed up, last"
scalar randPrefNet.R1I6.relayIpc.relayAndMux.p1.inQ_M 	rmtqueue-drop:last 	-nan
attr source  count(RMTQueue_Drop)
attr title  "dropped PDUs, last"
scalar randPrefNet.R1I6.relayIpc.relayAndMux.p1.outQ_M 	rmtqueue-drop:last 	-nan
attr source  count(RMTQueue_Drop)
attr title  "dropped PDUs, last"
scalar randPrefNet.R1I6.relayIpc.relayAndMux.p1.inQ_0 	rmtqueue-drop:last 	-nan
attr source  count(RMTQueue_Drop)
attr title  "dropped PDUs, last"
scalar randPrefNet.R1I6.relayIpc.relayAndMux.p1.outQ_0 	rmtqueue-drop:last 	-nan
attr source  count(RMTQueue_Drop)
attr title  "dropped PDUs, last"
scalar randPrefNet.R1I6.relayIpc.relayAndMux.p2.port 	rmtport-down:last 	7
attr source  count(RMTPort_PassDown)
attr title  "msg passed down, last"
scalar randPrefNet.R1I6.relayIpc.relayAndMux.p2.port 	rmtport-up:last 	7
attr ""  ""
attr source  count(RMTPort_PassUp)
attr title  "msg passed up, last"
scalar randPrefNet.R1I6.relayIpc.relayAndMux.p2.inQ_M 	rmtqueue-drop:last 	-nan
attr source  count(RMTQueue_Drop)
attr title  "dropped PDUs, last"
scalar randPrefNet.R1I6.relayIpc.relayAndMux.p2.outQ_M 	rmtqueue-drop:last 	-nan
attr source  count(RMTQueue_Drop)
attr title  "dropped PDUs, last"
scalar randPrefNet.R1I6.relayIpc.relayAndMux.p2.inQ_0 	rmtqueue-drop:last 	-nan
attr source  count(RMTQueue_Drop)
attr title  "dropped PDUs, last"
scalar randPrefNet.R1I6.relayIpc.relayAndMux.p2.outQ_0 	rmtqueue-drop:last 	-nan
attr source  count(RMTQueue_Drop)
attr title  "dropped PDUs, last"
scalar randPrefNet.R1I6.relayIpc.relayAndMux.p3.port 	rmtport-down:last 	7
attr source  count(RMTPort_PassDown)
attr title  "msg passed down, last"
scalar randPrefNet.R1I6.relayIpc.relayAndMux.p3.port 	rmtport-up:last 	6
attr ""  ""
attr source  count(RMTPort_PassUp)
attr title  "msg passed up, last"
scalar randPrefNet.R1I6.relayIpc.relayAndMux.p3.inQ_M 	rmtqueue-drop:last 	-nan
attr source  count(RMTQueue_Drop)
attr title  "dropped PDUs, last"
scalar randPrefNet.R1I6.relayIpc.relayAndMux.p3.outQ_M 	rmtqueue-drop:last 	-nan
attr source  count(RMTQueue_Drop)
attr title  "dropped PDUs, last"
scalar randPrefNet.R1I6.relayIpc.relayAndMux.p3.inQ_0 	rmtqueue-drop:last 	-nan
attr source  count(RMTQueue_Drop)
attr title  "dropped PDUs, last"
scalar randPrefNet.R1I6.relayIpc.relayAndMux.p3.outQ_0 	rmtqueue-drop:last 	-nan
attr source  count(RMTQueue_Drop)
attr title  "dropped PDUs, last"
scalar randPrefNet.R1I6.relayIpc.relayAndMux.p4.port 	rmtport-down:last 	7
attr source  count(RMTPort_PassDown)
attr title  "msg passed down, last"
scalar randPrefNet.R1I6.relayIpc.relayAndMux.p4.port 	rmtport-up:last 	7
attr ""  ""
attr source  count(RMTPort_PassUp)
attr title  "msg passed up, last"
scalar randPrefNet.R1I6.relayIpc.relayAndMux.p4.inQ_M 	rmtqueue-drop:last 	-nan
attr source  count(RMTQueue_Drop)
attr title  "dropped PDUs, last"
scalar randPrefNet.R1I6.relayIpc.relayAndMux.p4.outQ_M 	rmtqueue-drop:last 	-nan
attr source  count(RMTQueue_Drop)
attr title  "dropped PDUs, last"
scalar randPrefNet.R1I6.relayIpc.relayAndMux.p4.inQ_0 	rmtqueue-drop:last 	-nan
attr source  count(RMTQueue_Drop)
attr title  "dropped PDUs, last"
scalar randPrefNet.R1I6.relayIpc.relayAndMux.p4.outQ_0 	rmtqueue-drop:last 	-nan
attr source  count(RMTQueue_Drop)
attr title  "dropped PDUs, last"
scalar randPrefNet.R1I6.relayIpc.relayAndMux.p5.port 	rmtport-down:last 	7
attr source  count(RMTPort_PassDown)
attr title  "msg passed down, last"
scalar randPrefNet.R1I6.relayIpc.relayAndMux.p5.port 	rmtport-up:last 	7
attr ""  ""
attr source  count(RMTPort_PassUp)
attr title  "msg passed up, last"
scalar randPrefNet.R1I6.relayIpc.relayAndMux.p5.inQ_M 	rmtqueue-drop:last 	-nan
attr source  count(RMTQueue_Drop)
attr title  "dropped PDUs, last"
scalar randPrefNet.R1I6.relayIpc.relayAndMux.p5.outQ_M 	rmtqueue-drop:last 	-nan
attr source  count(RMTQueue_Drop)
attr title  "dropped PDUs, last"
scalar randPrefNet.R1I6.relayIpc.relayAndMux.p5.inQ_0 	rmtqueue-drop:last 	-nan
attr source  count(RMTQueue_Drop)
attr title  "dropped PDUs, last"
scalar randPrefNet.R1I6.relayIpc.relayAndMux.p5.outQ_0 	rmtqueue-drop:last 	-nan
attr source  count(RMTQueue_Drop)
attr title  "dropped PDUs, last"
scalar randPrefNet.R1I7.ipcProcess[0].relayAndMux.p0.port 	rmtport-down:last 	15
attr source  count(RMTPort_PassDown)
attr title  "msg passed down, last"
scalar randPrefNet.R1I7.ipcProcess[0].relayAndMux.p0.port 	rmtport-up:last 	15
attr ""  ""
attr source  count(RMTPort_PassUp)
attr title  "msg passed up, last"
scalar randPrefNet.R1I7.ipcProcess[0].relayAndMux.p0.inQ_M 	rmtqueue-drop:last 	-nan
attr source  count(RMTQueue_Drop)
attr title  "dropped PDUs, last"
scalar randPrefNet.R1I7.ipcProcess[0].relayAndMux.p0.outQ_M 	rmtqueue-drop:last 	-nan
attr source  count(RMTQueue_Drop)
attr title  "dropped PDUs, last"
scalar randPrefNet.R1I7.ipcProcess[0].relayAndMux.p0.inQ_0 	rmtqueue-drop:last 	-nan
attr source  count(RMTQueue_Drop)
attr title  "dropped PDUs, last"
scalar randPrefNet.R1I7.ipcProcess[0].relayAndMux.p0.outQ_0 	rmtqueue-drop:last 	-nan
attr source  count(RMTQueue_Drop)
attr title  "dropped PDUs, last"
scalar randPrefNet.R1I7.relayIpc.relayAndMux.p0.port 	rmtport-down:last 	7
attr source  count(RMTPort_PassDown)
attr title  "msg passed down, last"
scalar randPrefNet.R1I7.relayIpc.relayAndMux.p0.port 	rmtport-up:last 	7
attr ""  ""
attr source  count(RMTPort_PassUp)
attr title  "msg passed up, last"
scalar randPrefNet.R1I7.relayIpc.relayAndMux.p0.inQ_M 	rmtqueue-drop:last 	-nan
attr source  count(RMTQueue_Drop)
attr title  "dropped PDUs, last"
scalar randPrefNet.R1I7.relayIpc.relayAndMux.p0.outQ_M 	rmtqueue-drop:last 	-nan
attr source  count(RMTQueue_Drop)
attr title  "dropped PDUs, last"
scalar randPrefNet.R1I7.relayIpc.relayAndMux.p0.inQ_0 	rmtqueue-drop:last 	-nan
attr source  count(RMTQueue_Drop)
attr title  "dropped PDUs, last"
scalar randPrefNet.R1I7.relayIpc.relayAndMux.p0.outQ_0 	rmtqueue-drop:last 	-nan
attr source  count(RMTQueue_Drop)
attr title  "dropped PDUs, last"
scalar randPrefNet.R1I8.ipcProcess[0].relayAndMux.p0.port 	rmtport-down:last 	14
attr source  count(RMTPort_PassDown)
attr title  "msg passed down, last"
scalar randPrefNet.R1I8.ipcProcess[0].relayAndMux.p0.port 	rmtport-up:last 	14
attr ""  ""
attr source  count(RMTPort_PassUp)
attr title  "msg passed up, last"
scalar randPrefNet.R1I8.ipcProcess[0].relayAndMux.p0.inQ_M 	rmtqueue-drop:last 	-nan
attr source  count(RMTQueue_Drop)
attr title  "dropped PDUs, last"
scalar randPrefNet.R1I8.ipcProcess[0].relayAndMux.p0.outQ_M 	rmtqueue-drop:last 	-nan
attr source  count(RMTQueue_Drop)
attr title  "dropped PDUs, last"
scalar randPrefNet.R1I8.ipcProcess[0].relayAndMux.p0.inQ_0 	rmtqueue-drop:last 	-nan
attr source  count(RMTQueue_Drop)
attr title  "dropped PDUs, last"
scalar randPrefNet.R1I8.ipcProcess[0].relayAndMux.p0.outQ_0 	rmtqueue-drop:last 	-nan
attr source  count(RMTQueue_Drop)
attr title  "dropped PDUs, last"
scalar randPrefNet.R1I8.ipcProcess[1].relayAndMux.p0.port 	rmtport-down:last 	14
attr source  count(RMTPort_PassDown)
attr title  "msg passed down, last"
scalar randPrefNet.R1I8.ipcProcess[1].relayAndMux.p0.port 	rmtport-up:last 	14
attr ""  ""
attr source  count(RMTPort_PassUp)
attr title  "msg passed up, last"
scalar randPrefNet.R1I8.ipcProcess[1].relayAndMux.p0.inQ_M 	rmtqueue-drop:last 	-nan
attr source  count(RMTQueue_Drop)
attr title  "dropped PDUs, last"
scalar randPrefNet.R1I8.ipcProcess[1].relayAndMux.p0.outQ_M 	rmtqueue-drop:last 	-nan
attr source  count(RMTQueue_Drop)
attr title  "dropped PDUs, last"
scalar randPrefNet.R1I8.ipcProcess[1].relayAndMux.p0.inQ_0 	rmtqueue-drop:last 	-nan
attr source  count(RMTQueue_Drop)
attr title  "dropped PDUs, last"
scalar randPrefNet.R1I8.ipcProcess[1].relayAndMux.p0.outQ_0 	rmtqueue-drop:last 	-nan
attr source  count(RMTQueue_Drop)
attr title  "dropped PDUs, last"
scalar randPrefNet.R1I8.ipcProcess[2].relayAndMux.p0.port 	rmtport-down:last 	14
attr source  count(RMTPort_PassDown)
attr title  "msg passed down, last"
scalar randPrefNet.R1I8.ipcProcess[2].relayAndMux.p0.port 	rmtport-up:last 	14
attr ""  ""
attr source  count(RMTPort_PassUp)
attr title  "msg passed up, last"
scalar randPrefNet.R1I8.ipcProcess[2].relayAndMux.p0.inQ_M 	rmtqueue-drop:last 	-nan
attr source  count(RMTQueue_Drop)
attr title  "dropped PDUs, last"
scalar randPrefNet.R1I8.ipcProcess[2].relayAndMux.p0.outQ_M 	rmtqueue-drop:last 	-nan
attr source  count(RMTQueue_Drop)
attr title  "dropped PDUs, last"
scalar randPrefNet.R1I8.ipcProcess[2].relayAndMux.p0.inQ_0 	rmtqueue-drop:last 	-nan
attr source  count(RMTQueue_Drop)
attr title  "dropped PDUs, last"
scalar randPrefNet.R1I8.ipcProcess[2].relayAndMux.p0.outQ_0 	rmtqueue-drop:last 	-nan
attr source  count(RMTQueue_Drop)
attr title  "dropped PDUs, last"
scalar randPrefNet.R1I8.ipcProcess[3].relayAndMux.p0.port 	rmtport-down:last 	13
attr source  count(RMTPort_PassDown)
attr title  "msg passed down, last"
scalar randPrefNet.R1I8.ipcProcess[3].relayAndMux.p0.port 	rmtport-up:last 	13
attr ""  ""
attr source  count(RMTPort_PassUp)
attr title  "msg passed up, last"
scalar randPrefNet.R1I8.ipcProcess[3].relayAndMux.p0.inQ_M 	rmtqueue-drop:last 	-nan
attr source  count(RMTQueue_Drop)
attr title  "dropped PDUs, last"
scalar randPrefNet.R1I8.ipcProcess[3].relayAndMux.p0.outQ_M 	rmtqueue-drop:last 	-nan
attr source  count(RMTQueue_Drop)
attr title  "dropped PDUs, last"
scalar randPrefNet.R1I8.ipcProcess[3].relayAndMux.p0.inQ_0 	rmtqueue-drop:last 	-nan
attr source  count(RMTQueue_Drop)
attr title  "dropped PDUs, last"
scalar randPrefNet.R1I8.ipcProcess[3].relayAndMux.p0.outQ_0 	rmtqueue-drop:last 	-nan
attr source  count(RMTQueue_Drop)
attr title  "dropped PDUs, last"
scalar randPrefNet.R1I8.ipcProcess[4].relayAndMux.p0.port 	rmtport-down:last 	13
attr source  count(RMTPort_PassDown)
attr title  "msg passed down, last"
scalar randPrefNet.R1I8.ipcProcess[4].relayAndMux.p0.port 	rmtport-up:last 	13
attr ""  ""
attr source  count(RMTPort_PassUp)
attr title  "msg passed up, last"
scalar randPrefNet.R1I8.ipcProcess[4].relayAndMux.p0.inQ_M 	rmtqueue-drop:last 	-nan
attr source  count(RMTQueue_Drop)
attr title  "dropped PDUs, last"
scalar randPrefNet.R1I8.ipcProcess[4].relayAndMux.p0.outQ_M 	rmtqueue-drop:last 	-nan
attr source  count(RMTQueue_Drop)
attr title  "dropped PDUs, last"
scalar randPrefNet.R1I8.ipcProcess[4].relayAndMux.p0.inQ_0 	rmtqueue-drop:last 	-nan
attr source  count(RMTQueue_Drop)
attr title  "dropped PDUs, last"
scalar randPrefNet.R1I8.ipcProcess[4].relayAndMux.p0.outQ_0 	rmtqueue-drop:last 	-nan
attr source  count(RMTQueue_Drop)
attr title  "dropped PDUs, last"
scalar randPrefNet.R1I8.ipcProcess[5].relayAndMux.p0.port 	rmtport-down:last 	13
attr source  count(RMTPort_PassDown)
attr title  "msg passed down, last"
scalar randPrefNet.R1I8.ipcProcess[5].relayAndMux.p0.port 	rmtport-up:last 	13
attr ""  ""
attr source  count(RMTPort_PassUp)
attr title  "msg passed up, last"
scalar randPrefNet.R1I8.ipcProcess[5].relayAndMux.p0.inQ_M 	rmtqueue-drop:last 	-nan
attr source  count(RMTQueue_Drop)
attr title  "dropped PDUs, last"
scalar randPrefNet.R1I8.ipcProcess[5].relayAndMux.p0.outQ_M 	rmtqueue-drop:last 	-nan
attr source  count(RMTQueue_Drop)
attr title  "dropped PDUs, last"
scalar randPrefNet.R1I8.ipcProcess[5].relayAndMux.p0.inQ_0 	rmtqueue-drop:last 	-nan
attr source  count(RMTQueue_Drop)
attr title  "dropped PDUs, last"
scalar randPrefNet.R1I8.ipcProcess[5].relayAndMux.p0.outQ_0 	rmtqueue-drop:last 	-nan
attr source  count(RMTQueue_Drop)
attr title  "dropped PDUs, last"
scalar randPrefNet.R1I8.ipcProcess[6].relayAndMux.p0.port 	rmtport-down:last 	13
attr source  count(RMTPort_PassDown)
attr title  "msg passed down, last"
scalar randPrefNet.R1I8.ipcProcess[6].relayAndMux.p0.port 	rmtport-up:last 	13
attr ""  ""
attr source  count(RMTPort_PassUp)
attr title  "msg passed up, last"
scalar randPrefNet.R1I8.ipcProcess[6].relayAndMux.p0.inQ_M 	rmtqueue-drop:last 	-nan
attr source  count(RMTQueue_Drop)
attr title  "dropped PDUs, last"
scalar randPrefNet.R1I8.ipcProcess[6].relayAndMux.p0.outQ_M 	rmtqueue-drop:last 	-nan
attr source  count(RMTQueue_Drop)
attr title  "dropped PDUs, last"
scalar randPrefNet.R1I8.ipcProcess[6].relayAndMux.p0.inQ_0 	rmtqueue-drop:last 	-nan
attr source  count(RMTQueue_Drop)
attr title  "dropped PDUs, last"
scalar randPrefNet.R1I8.ipcProcess[6].relayAndMux.p0.outQ_0 	rmtqueue-drop:last 	-nan
attr source  count(RMTQueue_Drop)
attr title  "dropped PDUs, last"
scalar randPrefNet.R1I8.ipcProcess[7].relayAndMux.p0.port 	rmtport-down:last 	13
attr source  count(RMTPort_PassDown)
attr title  "msg passed down, last"
scalar randPrefNet.R1I8.ipcProcess[7].relayAndMux.p0.port 	rmtport-up:last 	13
attr ""  ""
attr source  count(RMTPort_PassUp)
attr title  "msg passed up, last"
scalar randPrefNet.R1I8.ipcProcess[7].relayAndMux.p0.inQ_M 	rmtqueue-drop:last 	-nan
attr source  count(RMTQueue_Drop)
attr title  "dropped PDUs, last"
scalar randPrefNet.R1I8.ipcProcess[7].relayAndMux.p0.outQ_M 	rmtqueue-drop:last 	-nan
attr source  count(RMTQueue_Drop)
attr title  "dropped PDUs, last"
scalar randPrefNet.R1I8.ipcProcess[7].relayAndMux.p0.inQ_0 	rmtqueue-drop:last 	-nan
attr source  count(RMTQueue_Drop)
attr title  "dropped PDUs, last"
scalar randPrefNet.R1I8.ipcProcess[7].relayAndMux.p0.outQ_0 	rmtqueue-drop:last 	-nan
attr source  count(RMTQueue_Drop)
attr title  "dropped PDUs, last"
scalar randPrefNet.R1I8.relayIpc.relayAndMux.p0.port 	rmtport-down:last 	6
attr source  count(RMTPort_PassDown)
attr title  "msg passed down, last"
scalar randPrefNet.R1I8.relayIpc.relayAndMux.p0.port 	rmtport-up:last 	6
attr ""  ""
attr source  count(RMTPort_PassUp)
attr title  "msg passed up, last"
scalar randPrefNet.R1I8.relayIpc.relayAndMux.p0.inQ_M 	rmtqueue-drop:last 	-nan
attr source  count(RMTQueue_Drop)
attr title  "dropped PDUs, last"
scalar randPrefNet.R1I8.relayIpc.relayAndMux.p0.outQ_M 	rmtqueue-drop:last 	-nan
attr source  count(RMTQueue_Drop)
attr title  "dropped PDUs, last"
scalar randPrefNet.R1I8.relayIpc.relayAndMux.p0.inQ_0 	rmtqueue-drop:last 	-nan
attr source  count(RMTQueue_Drop)
attr title  "dropped PDUs, last"
scalar randPrefNet.R1I8.relayIpc.relayAndMux.p0.outQ_0 	rmtqueue-drop:last 	-nan
attr source  count(RMTQueue_Drop)
attr title  "dropped PDUs, last"
scalar randPrefNet.R1I8.relayIpc.relayAndMux.p1.port 	rmtport-down:last 	6
attr source  count(RMTPort_PassDown)
attr title  "msg passed down, last"
scalar randPrefNet.R1I8.relayIpc.relayAndMux.p1.port 	rmtport-up:last 	6
attr ""  ""
attr source  count(RMTPort_PassUp)
attr title  "msg passed up, last"
scalar randPrefNet.R1I8.relayIpc.relayAndMux.p1.inQ_M 	rmtqueue-drop:last 	-nan
attr source  count(RMTQueue_Drop)
attr title  "dropped PDUs, last"
scalar randPrefNet.R1I8.relayIpc.relayAndMux.p1.outQ_M 	rmtqueue-drop:last 	-nan
attr source  count(RMTQueue_Drop)
attr title  "dropped PDUs, last"
scalar randPrefNet.R1I8.relayIpc.relayAndMux.p1.inQ_0 	rmtqueue-drop:last 	-nan
attr source  count(RMTQueue_Drop)
attr title  "dropped PDUs, last"
scalar randPrefNet.R1I8.relayIpc.relayAndMux.p1.outQ_0 	rmtqueue-drop:last 	-nan
attr source  count(RMTQueue_Drop)
attr title  "dropped PDUs, last"
scalar randPrefNet.R1I8.relayIpc.relayAndMux.p2.port 	rmtport-down:last 	6
attr source  count(RMTPort_PassDown)
attr title  "msg passed down, last"
scalar randPrefNet.R1I8.relayIpc.relayAndMux.p2.port 	rmtport-up:last 	6
attr ""  ""
attr source  count(RMTPort_PassUp)
attr title  "msg passed up, last"
scalar randPrefNet.R1I8.relayIpc.relayAndMux.p2.inQ_M 	rmtqueue-drop:last 	-nan
attr source  count(RMTQueue_Drop)
attr title  "dropped PDUs, last"
scalar randPrefNet.R1I8.relayIpc.relayAndMux.p2.outQ_M 	rmtqueue-drop:last 	-nan
attr source  count(RMTQueue_Drop)
attr title  "dropped PDUs, last"
scalar randPrefNet.R1I8.relayIpc.relayAndMux.p2.inQ_0 	rmtqueue-drop:last 	-nan
attr source  count(RMTQueue_Drop)
attr title  "dropped PDUs, last"
scalar randPrefNet.R1I8.relayIpc.relayAndMux.p2.outQ_0 	rmtqueue-drop:last 	-nan
attr source  count(RMTQueue_Drop)
attr title  "dropped PDUs, last"
scalar randPrefNet.R1I8.relayIpc.relayAndMux.p3.port 	rmtport-down:last 	6
attr source  count(RMTPort_PassDown)
attr title  "msg passed down, last"
scalar randPrefNet.R1I8.relayIpc.relayAndMux.p3.port 	rmtport-up:last 	6
attr ""  ""
attr source  count(RMTPort_PassUp)
attr title  "msg passed up, last"
scalar randPrefNet.R1I8.relayIpc.relayAndMux.p3.inQ_M 	rmtqueue-drop:last 	-nan
attr source  count(RMTQueue_Drop)
attr title  "dropped PDUs, last"
scalar randPrefNet.R1I8.relayIpc.relayAndMux.p3.outQ_M 	rmtqueue-drop:last 	-nan
attr source  count(RMTQueue_Drop)
attr title  "dropped PDUs, last"
scalar randPrefNet.R1I8.relayIpc.relayAndMux.p3.inQ_0 	rmtqueue-drop:last 	-nan
attr source  count(RMTQueue_Drop)
attr title  "dropped PDUs, last"
scalar randPrefNet.R1I8.relayIpc.relayAndMux.p3.outQ_0 	rmtqueue-drop:last 	-nan
attr source  count(RMTQueue_Drop)
attr title  "dropped PDUs, last"
scalar randPrefNet.R1I8.relayIpc.relayAndMux.p4.port 	rmtport-down:last 	6
attr source  count(RMTPort_PassDown)
attr title  "msg passed down, last"
scalar randPrefNet.R1I8.relayIpc.relayAndMux.p4.port 	rmtport-up:last 	6
attr ""  ""
attr source  count(RMTPort_PassUp)
attr title  "msg passed up, last"
scalar randPrefNet.R1I8.relayIpc.relayAndMux.p4.inQ_M 	rmtqueue-drop:last 	-nan
attr source  count(RMTQueue_Drop)
attr title  "dropped PDUs, last"
scalar randPrefNet.R1I8.relayIpc.relayAndMux.p4.outQ_M 	rmtqueue-drop:last 	-nan
attr source  count(RMTQueue_Drop)
attr title  "dropped PDUs, last"
scalar randPrefNet.R1I8.relayIpc.relayAndMux.p4.inQ_0 	rmtqueue-drop:last 	-nan
attr source  count(RMTQueue_Drop)
attr title  "dropped PDUs, last"
scalar randPrefNet.R1I8.relayIpc.relayAndMux.p4.outQ_0 	rmtqueue-drop:last 	-nan
attr source  count(RMTQueue_Drop)
attr title  "dropped PDUs, last"
scalar randPrefNet.R1I8.relayIpc.relayAndMux.p5.port 	rmtport-down:last 	6
attr source  count(RMTPort_PassDown)
attr title  "msg passed down, last"
scalar randPrefNet.R1I8.relayIpc.relayAndMux.p5.port 	rmtport-up:last 	7
attr ""  ""
attr source  count(RMTPort_PassUp)
attr title  "msg passed up, last"
scalar randPrefNet.R1I8.relayIpc.relayAndMux.p5.inQ_M 	rmtqueue-drop:last 	-nan
attr source  count(RMTQueue_Drop)
attr title  "dropped PDUs, last"
scalar randPrefNet.R1I8.relayIpc.relayAndMux.p5.outQ_M 	rmtqueue-drop:last 	-nan
attr source  count(RMTQueue_Drop)
attr title  "dropped PDUs, last"
scalar randPrefNet.R1I8.relayIpc.relayAndMux.p5.inQ_0 	rmtqueue-drop:last 	-nan
attr source  count(RMTQueue_Drop)
attr title  "dropped PDUs, last"
scalar randPrefNet.R1I8.relayIpc.relayAndMux.p5.outQ_0 	rmtqueue-drop:last 	-nan
attr source  count(RMTQueue_Drop)
attr title  "dropped PDUs, last"
scalar randPrefNet.R1I8.relayIpc.relayAndMux.p6.port 	rmtport-down:last 	6
attr source  count(RMTPort_PassDown)
attr title  "msg passed down, last"
scalar randPrefNet.R1I8.relayIpc.relayAndMux.p6.port 	rmtport-up:last 	7
attr ""  ""
attr source  count(RMTPort_PassUp)
attr title  "msg passed up, last"
scalar randPrefNet.R1I8.relayIpc.relayAndMux.p6.inQ_M 	rmtqueue-drop:last 	-nan
attr source  count(RMTQueue_Drop)
attr title  "dropped PDUs, last"
scalar randPrefNet.R1I8.relayIpc.relayAndMux.p6.outQ_M 	rmtqueue-drop:last 	-nan
attr source  count(RMTQueue_Drop)
attr title  "dropped PDUs, last"
scalar randPrefNet.R1I8.relayIpc.relayAndMux.p6.inQ_0 	rmtqueue-drop:last 	-nan
attr source  count(RMTQueue_Drop)
attr title  "dropped PDUs, last"
scalar randPrefNet.R1I8.relayIpc.relayAndMux.p6.outQ_0 	rmtqueue-drop:last 	-nan
attr source  count(RMTQueue_Drop)
attr title  "dropped PDUs, last"
scalar randPrefNet.R1I8.relayIpc.relayAndMux.p7.port 	rmtport-down:last 	6
attr source  count(RMTPort_PassDown)
attr title  "msg passed down, last"
scalar randPrefNet.R1I8.relayIpc.relayAndMux.p7.port 	rmtport-up:last 	7
attr ""  ""
attr source  count(RMTPort_PassUp)
attr title  "msg passed up, last"
scalar randPrefNet.R1I8.relayIpc.relayAndMux.p7.inQ_M 	rmtqueue-drop:last 	-nan
attr source  count(RMTQueue_Drop)
attr title  "dropped PDUs, last"
scalar randPrefNet.R1I8.relayIpc.relayAndMux.p7.outQ_M 	rmtqueue-drop:last 	-nan
attr source  count(RMTQueue_Drop)
attr title  "dropped PDUs, last"
scalar randPrefNet.R1I8.relayIpc.relayAndMux.p7.inQ_0 	rmtqueue-drop:last 	-nan
attr source  count(RMTQueue_Drop)
attr title  "dropped PDUs, last"
scalar randPrefNet.R1I8.relayIpc.relayAndMux.p7.outQ_0 	rmtqueue-drop:last 	-nan
attr source  count(RMTQueue_Drop)
attr title  "dropped PDUs, last"
scalar randPrefNet.R1I9.ipcProcess[0].relayAndMux.p0.port 	rmtport-down:last 	14
attr source  count(RMTPort_PassDown)
attr title  "msg passed down, last"
scalar randPrefNet.R1I9.ipcProcess[0].relayAndMux.p0.port 	rmtport-up:last 	14
attr ""  ""
attr source  count(RMTPort_PassUp)
attr title  "msg passed up, last"
scalar randPrefNet.R1I9.ipcProcess[0].relayAndMux.p0.inQ_M 	rmtqueue-drop:last 	-nan
attr source  count(RMTQueue_Drop)
attr title  "dropped PDUs, last"
scalar randPrefNet.R1I9.ipcProcess[0].relayAndMux.p0.outQ_M 	rmtqueue-drop:last 	-nan
attr source  count(RMTQueue_Drop)
attr title  "dropped PDUs, last"
scalar randPrefNet.R1I9.ipcProcess[0].relayAndMux.p0.inQ_0 	rmtqueue-drop:last 	-nan
attr source  count(RMTQueue_Drop)
attr title  "dropped PDUs, last"
scalar randPrefNet.R1I9.ipcProcess[0].relayAndMux.p0.outQ_0 	rmtqueue-drop:last 	-nan
attr source  count(RMTQueue_Drop)
attr title  "dropped PDUs, last"
scalar randPrefNet.R1I9.relayIpc.relayAndMux.p0.port 	rmtport-down:last 	7
attr source  count(RMTPort_PassDown)
attr title  "msg passed down, last"
scalar randPrefNet.R1I9.relayIpc.relayAndMux.p0.port 	rmtport-up:last 	6
attr ""  ""
attr source  count(RMTPort_PassUp)
attr title  "msg passed up, last"
scalar randPrefNet.R1I9.relayIpc.relayAndMux.p0.inQ_M 	rmtqueue-drop:last 	-nan
attr source  count(RMTQueue_Drop)
attr title  "dropped PDUs, last"
scalar randPrefNet.R1I9.relayIpc.relayAndMux.p0.outQ_M 	rmtqueue-drop:last 	-nan
attr source  count(RMTQueue_Drop)
attr title  "dropped PDUs, last"
scalar randPrefNet.R1I9.relayIpc.relayAndMux.p0.inQ_0 	rmtqueue-drop:last 	-nan
attr source  count(RMTQueue_Drop)
attr title  "dropped PDUs, last"
scalar randPrefNet.R1I9.relayIpc.relayAndMux.p0.outQ_0 	rmtqueue-drop:last 	-nan
attr source  count(RMTQueue_Drop)
attr title  "dropped PDUs, last"
scalar randPrefNet.R1Ia.ipcProcess[0].relayAndMux.p0.port 	rmtport-down:last 	14
attr source  count(RMTPort_PassDown)
attr title  "msg passed down, last"
scalar randPrefNet.R1Ia.ipcProcess[0].relayAndMux.p0.port 	rmtport-up:last 	14
attr ""  ""
attr source  count(RMTPort_PassUp)
attr title  "msg passed up, last"
scalar randPrefNet.R1Ia.ipcProcess[0].relayAndMux.p0.inQ_M 	rmtqueue-drop:last 	-nan
attr source  count(RMTQueue_Drop)
attr title  "dropped PDUs, last"
scalar randPrefNet.R1Ia.ipcProcess[0].relayAndMux.p0.outQ_M 	rmtqueue-drop:last 	-nan
attr source  count(RMTQueue_Drop)
attr title  "dropped PDUs, last"
scalar randPrefNet.R1Ia.ipcProcess[0].relayAndMux.p0.inQ_0 	rmtqueue-drop:last 	-nan
attr source  count(RMTQueue_Drop)
attr title  "dropped PDUs, last"
scalar randPrefNet.R1Ia.ipcProcess[0].relayAndMux.p0.outQ_0 	rmtqueue-drop:last 	-nan
attr source  count(RMTQueue_Drop)
attr title  "dropped PDUs, last"
scalar randPrefNet.R1Ia.ipcProcess[1].relayAndMux.p0.port 	rmtport-down:last 	14
attr source  count(RMTPort_PassDown)
attr title  "msg passed down, last"
scalar randPrefNet.R1Ia.ipcProcess[1].relayAndMux.p0.port 	rmtport-up:last 	14
attr ""  ""
attr source  count(RMTPort_PassUp)
attr title  "msg passed up, last"
scalar randPrefNet.R1Ia.ipcProcess[1].relayAndMux.p0.inQ_M 	rmtqueue-drop:last 	-nan
attr source  count(RMTQueue_Drop)
attr title  "dropped PDUs, last"
scalar randPrefNet.R1Ia.ipcProcess[1].relayAndMux.p0.outQ_M 	rmtqueue-drop:last 	-nan
attr source  count(RMTQueue_Drop)
attr title  "dropped PDUs, last"
[...]
attr source  count(RMTQueue_Drop)
attr title  "dropped PDUs, last"
scalar randPrefNet.RfIb.relayIpc.relayAndMux.p0.port 	rmtport-down:last 	6
attr source  count(RMTPort_PassDown)
attr title  "msg passed down, last"
scalar randPrefNet.RfIb.relayIpc.relayAndMux.p0.port 	rmtport-up:last 	6
attr ""  ""
attr source  count(RMTPort_PassUp)
attr title  "msg passed up, last"
scalar randPrefNet.RfIb.relayIpc.relayAndMux.p0.inQ_M 	rmtqueue-drop:last 	-nan
attr source  count(RMTQueue_Drop)
attr title  "dropped PDUs, last"
scalar randPrefNet.RfIb.relayIpc.relayAndMux.p0.outQ_M 	rmtqueue-drop:last 	-nan
attr source  count(RMTQueue_Drop)
attr title  "dropped PDUs, last"
scalar randPrefNet.RfIb.relayIpc.relayAndMux.p0.inQ_0 	rmtqueue-drop:last 	-nan
attr source  count(RMTQueue_Drop)
attr title  "dropped PDUs, last"
scalar randPrefNet.RfIb.relayIpc.relayAndMux.p0.outQ_0 	rmtqueue-drop:last 	-nan
attr source  count(RMTQueue_Drop)
attr title  "dropped PDUs, last"
scalar randPrefNet.RfIb.relayIpc.relayAndMux.p1.port 	rmtport-down:last 	6
attr source  count(RMTPort_PassDown)
attr title  "msg passed down, last"
scalar randPrefNet.RfIb.relayIpc.relayAndMux.p1.port 	rmtport-up:last 	6
attr ""  ""
attr source  count(RMTPort_PassUp)
attr title  "msg passed up, last"
scalar randPrefNet.RfIb.relayIpc.relayAndMux.p1.inQ_M 	rmtqueue-drop:last 	-nan
attr source  count(RMTQueue_Drop)
attr title  "dropped PDUs, last"
scalar randPrefNet.RfIb.relayIpc.relayAndMux.p1.outQ_M 	rmtqueue-drop:last 	-nan
attr source  count(RMTQueue_Drop)
attr title  "dropped PDUs, last"
scalar randPrefNet.RfIb.relayIpc.relayAndMux.p1.inQ_0 	rmtqueue-drop:last 	-nan
attr source  count(RMTQueue_Drop)
attr title  "dropped PDUs, last"
scalar randPrefNet.RfIb.relayIpc.relayAndMux.p1.outQ_0 	rmtqueue-drop:last 	-nan
attr source  count(RMTQueue_Drop)
attr title  "dropped PDUs, last"
scalar randPrefNet.RfIb.relayIpc.relayAndMux.p2.port 	rmtport-down:last 	6
attr source  count(RMTPort_PassDown)
attr title  "msg passed down, last"
scalar randPrefNet.RfIb.relayIpc.relayAndMux.p2.port 	rmtport-up:last 	6
attr ""  ""
attr source  count(RMTPort_PassUp)
attr title  "msg passed up, last"
scalar randPrefNet.RfIb.relayIpc.relayAndMux.p2.inQ_M 	rmtqueue-drop:last 	-nan
attr source  count(RMTQueue_Drop)
attr title  "dropped PDUs, last"
scalar randPrefNet.RfIb.relayIpc.relayAndMux.p2.outQ_M 	rmtqueue-drop:last 	-nan
attr source  count(RMTQueue_Drop)
attr title  "dropped PDUs, last"
scalar randPrefNet.RfIb.relayIpc.relayAndMux.p2.inQ_0 	rmtqueue-drop:last 	-nan
attr source  count(RMTQueue_Drop)
attr title  "dropped PDUs, last"
scalar randPrefNet.RfIb.relayIpc.relayAndMux.p2.outQ_0 	rmtqueue-drop:last 	-nan
attr source  count(RMTQueue_Drop)
attr title  "dropped PDUs, last"
scalar randPrefNet.RfIb.relayIpc.relayAndMux.p3.port 	rmtport-down:last 	6
attr source  count(RMTPort_PassDown)
attr title  "msg passed down, last"
scalar randPrefNet.RfIb.relayIpc.relayAndMux.p3.port 	rmtport-up:last 	6
attr ""  ""
attr source  count(RMTPort_PassUp)
attr title  "msg passed up, last"
scalar randPrefNet.RfIb.relayIpc.relayAndMux.p3.inQ_M 	rmtqueue-drop:last 	-nan
attr source  count(RMTQueue_Drop)
attr title  "dropped PDUs, last"
scalar randPrefNet.RfIb.relayIpc.relayAndMux.p3.outQ_M 	rmtqueue-drop:last 	-nan
attr source  count(RMTQueue_Drop)
attr title  "dropped PDUs, last"
scalar randPrefNet.RfIb.relayIpc.relayAndMux.p3.inQ_0 	rmtqueue-drop:last 	-nan
attr source  count(RMTQueue_Drop)
attr title  "dropped PDUs, last"
scalar randPrefNet.RfIb.relayIpc.relayAndMux.p3.outQ_0 	rmtqueue-drop:last 	-nan
attr source  count(RMTQueue_Drop)
attr title  "dropped PDUs, last"
scalar randPrefNet.RfIb.relayIpc.relayAndMux.p4.port 	rmtport-down:last 	6
attr source  count(RMTPort_PassDown)
attr title  "msg passed down, last"
scalar randPrefNet.RfIb.relayIpc.relayAndMux.p4.port 	rmtport-up:last 	6
attr ""  ""
attr source  count(RMTPort_PassUp)
attr title  "msg passed up, last"
scalar randPrefNet.RfIb.relayIpc.relayAndMux.p4.inQ_M 	rmtqueue-drop:last 	-nan
attr source  count(RMTQueue_Drop)
attr title  "dropped PDUs, last"
scalar randPrefNet.RfIb.relayIpc.relayAndMux.p4.outQ_M 	rmtqueue-drop:last 	-nan
attr source  count(RMTQueue_Drop)
attr title  "dropped PDUs, last"
scalar randPrefNet.RfIb.relayIpc.relayAndMux.p4.inQ_0 	rmtqueue-drop:last 	-nan
attr source  count(RMTQueue_Drop)
attr title  "dropped PDUs, last"
scalar randPrefNet.RfIb.relayIpc.relayAndMux.p4.outQ_0 	rmtqueue-drop:last 	-nan
attr source  count(RMTQueue_Drop)
attr title  "dropped PDUs, last"
scalar randPrefNet.RfIb.relayIpc.relayAndMux.p5.port 	rmtport-down:last 	6
attr source  count(RMTPort_PassDown)
attr title  "msg passed down, last"
scalar randPrefNet.RfIb.relayIpc.relayAndMux.p5.port 	rmtport-up:last 	6
attr ""  ""
attr source  count(RMTPort_PassUp)
attr title  "msg passed up, last"
scalar randPrefNet.RfIb.relayIpc.relayAndMux.p5.inQ_M 	rmtqueue-drop:last 	-nan
attr source  count(RMTQueue_Drop)
attr title  "dropped PDUs, last"
scalar randPrefNet.RfIb.relayIpc.relayAndMux.p5.outQ_M 	rmtqueue-drop:last 	-nan
attr source  count(RMTQueue_Drop)
attr title  "dropped PDUs, last"
scalar randPrefNet.RfIb.relayIpc.relayAndMux.p5.inQ_0 	rmtqueue-drop:last 	-nan
attr source  count(RMTQueue_Drop)
attr title  "dropped PDUs, last"
scalar randPrefNet.RfIb.relayIpc.relayAndMux.p5.outQ_0 	rmtqueue-drop:last 	-nan
attr source  count(RMTQueue_Drop)
attr title  "dropped PDUs, last"
scalar randPrefNet.RfIc.ipcProcess[0].relayAndMux.p0.port 	rmtport-down:last 	13
attr source  count(RMTPort_PassDown)
attr title  "msg passed down, last"
scalar randPrefNet.RfIc.ipcProcess[0].relayAndMux.p0.port 	rmtport-up:last 	13
attr ""  ""
attr source  count(RMTPort_PassUp)
attr title  "msg passed up, last"
scalar randPrefNet.RfIc.ipcProcess[0].relayAndMux.p0.inQ_M 	rmtqueue-drop:last 	-nan
attr source  count(RMTQueue_Drop)
attr title  "dropped PDUs, last"
scalar randPrefNet.RfIc.ipcProcess[0].relayAndMux.p0.outQ_M 	rmtqueue-drop:last 	-nan
attr source  count(RMTQueue_Drop)
attr title  "dropped PDUs, last"
scalar randPrefNet.RfIc.ipcProcess[0].relayAndMux.p0.inQ_0 	rmtqueue-drop:last 	-nan
attr source  count(RMTQueue_Drop)
attr title  "dropped PDUs, last"
scalar randPrefNet.RfIc.ipcProcess[0].relayAndMux.p0.outQ_0 	rmtqueue-drop:last 	-nan
attr source  count(RMTQueue_Drop)
attr title  "dropped PDUs, last"
scalar randPrefNet.RfIc.ipcProcess[1].relayAndMux.p0.port 	rmtport-down:last 	13
attr source  count(RMTPort_PassDown)
attr title  "msg passed down, last"
scalar randPrefNet.RfIc.ipcProcess[1].relayAndMux.p0.port 	rmtport-up:last 	13
attr ""  ""
attr source  count(RMTPort_PassUp)
attr title  "msg passed up, last"
scalar randPrefNet.RfIc.ipcProcess[1].relayAndMux.p0.inQ_M 	rmtqueue-drop:last 	-nan
attr source  count(RMTQueue_Drop)
attr title  "dropped PDUs, last"
scalar randPrefNet.RfIc.ipcProcess[1].relayAndMux.p0.outQ_M 	rmtqueue-drop:last 	-nan
attr source  count(RMTQueue_Drop)
attr title  "dropped PDUs, last"
scalar randPrefNet.RfIc.ipcProcess[1].relayAndMux.p0.inQ_0 	rmtqueue-drop:last 	-nan
attr source  count(RMTQueue_Drop)
attr title  "dropped PDUs, last"
scalar randPrefNet.RfIc.ipcProcess[1].relayAndMux.p0.outQ_0 	rmtqueue-drop:last 	-nan
attr source  count(RMTQueue_Drop)
attr title  "dropped PDUs, last"
scalar randPrefNet.RfIc.ipcProcess[2].relayAndMux.p0.port 	rmtport-down:last 	14
attr source  count(RMTPort_PassDown)
attr title  "msg passed down, last"
scalar randPrefNet.RfIc.ipcProcess[2].relayAndMux.p0.port 	rmtport-up:last 	14
attr ""  ""
attr source  count(RMTPort_PassUp)
attr title  "msg passed up, last"
scalar randPrefNet.RfIc.ipcProcess[2].relayAndMux.p0.inQ_M 	rmtqueue-drop:last 	-nan
attr source  count(RMTQueue_Drop)
attr title  "dropped PDUs, last"
scalar randPrefNet.RfIc.ipcProcess[2].relayAndMux.p0.outQ_M 	rmtqueue-drop:last 	-nan
attr source  count(RMTQueue_Drop)
attr title  "dropped PDUs, last"
scalar randPrefNet.RfIc.ipcProcess[2].relayAndMux.p0.inQ_0 	rmtqueue-drop:last 	-nan
attr source  count(RMTQueue_Drop)
attr title  "dropped PDUs, last"
scalar randPrefNet.RfIc.ipcProcess[2].relayAndMux.p0.outQ_0 	rmtqueue-drop:last 	-nan
attr source  count(RMTQueue_Drop)
attr title  "dropped PDUs, last"
scalar randPrefNet.RfIc.ipcProcess[3].relayAndMux.p0.port 	rmtport-down:last 	14
attr source  count(RMTPort_PassDown)
attr title  "msg passed down, last"
scalar randPrefNet.RfIc.ipcProcess[3].relayAndMux.p0.port 	rmtport-up:last 	14
attr ""  ""
attr source  count(RMTPort_PassUp)
attr title  "msg passed up, last"
scalar randPrefNet.RfIc.ipcProcess[3].relayAndMux.p0.inQ_M 	rmtqueue-drop:last 	-nan
attr source  count(RMTQueue_Drop)
attr title  "dropped PDUs, last"
scalar randPrefNet.RfIc.ipcProcess[3].relayAndMux.p0.outQ_M 	rmtqueue-drop:last 	-nan
attr source  count(RMTQueue_Drop)
attr title  "dropped PDUs, last"
scalar randPrefNet.RfIc.ipcProcess[3].relayAndMux.p0.inQ_0 	rmtqueue-drop:last 	-nan
attr source  count(RMTQueue_Drop)
attr title  "dropped PDUs, last"
scalar randPrefNet.RfIc.ipcProcess[3].relayAndMux.p0.outQ_0 	rmtqueue-drop:last 	-nan
attr source  count(RMTQueue_Drop)
attr title  "dropped PDUs, last"
scalar randPrefNet.RfIc.ipcProcess[4].relayAndMux.p0.port 	rmtport-down:last 	13
attr source  count(RMTPort_PassDown)
attr title  "msg passed down, last"
scalar randPrefNet.RfIc.ipcProcess[4].relayAndMux.p0.port 	rmtport-up:last 	13
attr ""  ""
attr source  count(RMTPort_PassUp)
attr title  "msg passed up, last"
scalar randPrefNet.RfIc.ipcProcess[4].relayAndMux.p0.inQ_M 	rmtqueue-drop:last 	-nan
attr source  count(RMTQueue_Drop)
attr title  "dropped PDUs, last"
scalar randPrefNet.RfIc.ipcProcess[4].relayAndMux.p0.outQ_M 	rmtqueue-drop:last 	-nan
attr source  count(RMTQueue_Drop)
attr title  "dropped PDUs, last"
scalar randPrefNet.RfIc.ipcProcess[4].relayAndMux.p0.inQ_0 	rmtqueue-drop:last 	-nan
attr source  count(RMTQueue_Drop)
attr title  "dropped PDUs, last"
scalar randPrefNet.RfIc.ipcProcess[4].relayAndMux.p0.outQ_0 	rmtqueue-drop:last 	-nan
attr source  count(RMTQueue_Drop)
attr title  "dropped PDUs, last"
scalar randPrefNet.RfIc.ipcProcess[5].relayAndMux.p0.port 	rmtport-down:last 	13
attr source  count(RMTPort_PassDown)
attr title  "msg passed down, last"
scalar randPrefNet.RfIc.ipcProcess[5].relayAndMux.p0.port 	rmtport-up:last 	13
attr ""  ""
attr source  count(RMTPort_PassUp)
attr title  "msg passed up, last"
scalar randPrefNet.RfIc.ipcProcess[5].relayAndMux.p0.inQ_M 	rmtqueue-drop:last 	-nan
attr source  count(RMTQueue_Drop)
attr title  "dropped PDUs, last"
scalar randPrefNet.RfIc.ipcProcess[5].relayAndMux.p0.outQ_M 	rmtqueue-drop:last 	-nan
attr source  count(RMTQueue_Drop)
attr title  "dropped PDUs, last"
scalar randPrefNet.RfIc.ipcProcess[5].relayAndMux.p0.inQ_0 	rmtqueue-drop:last 	-nan
attr source  count(RMTQueue_Drop)
attr title  "dropped PDUs, last"
scalar randPrefNet.RfIc.ipcProcess[5].relayAndMux.p0.outQ_0 	rmtqueue-drop:last 	-nan
attr source  count(RMTQueue_Drop)
attr title  "dropped PDUs, last"
scalar randPrefNet.RfIc.relayIpc.relayAndMux.p0.port 	rmtport-down:last 	6
attr source  count(RMTPort_PassDown)
attr title  "msg passed down, last"
scalar randPrefNet.RfIc.relayIpc.relayAndMux.p0.port 	rmtport-up:last 	6
attr ""  ""
attr source  count(RMTPort_PassUp)
attr title  "msg passed up, last"
scalar randPrefNet.RfIc.relayIpc.relayAndMux.p0.inQ_M 	rmtqueue-drop:last 	-nan
attr source  count(RMTQueue_Drop)
attr title  "dropped PDUs, last"
scalar randPrefNet.RfIc.relayIpc.relayAndMux.p0.outQ_M 	rmtqueue-drop:last 	-nan
attr source  count(RMTQueue_Drop)
attr title  "dropped PDUs, last"
scalar randPrefNet.RfIc.relayIpc.relayAndMux.p0.inQ_0 	rmtqueue-drop:last 	-nan
attr source  count(RMTQueue_Drop)
attr title  "dropped PDUs, last"
scalar randPrefNet.RfIc.relayIpc.relayAndMux.p0.outQ_0 	rmtqueue-drop:last 	-nan
attr source  count(RMTQueue_Drop)
attr title  "dropped PDUs, last"
scalar randPrefNet.RfIc.relayIpc.relayAndMux.p1.port 	rmtport-down:last 	6
attr source  count(RMTPort_PassDown)
attr title  "msg passed down, last"
scalar randPrefNet.RfIc.relayIpc.relayAndMux.p1.port 	rmtport-up:last 	6
attr ""  ""
attr source  count(RMTPort_PassUp)
attr title  "msg passed up, last"
scalar randPrefNet.RfIc.relayIpc.relayAndMux.p1.inQ_M 	rmtqueue-drop:last 	-nan
attr source  count(RMTQueue_Drop)
attr title  "dropped PDUs, last"
scalar randPrefNet.RfIc.relayIpc.relayAndMux.p1.outQ_M 	rmtqueue-drop:last 	-nan
attr source  count(RMTQueue_Drop)
attr title  "dropped PDUs, last"
scalar randPrefNet.RfIc.relayIpc.relayAndMux.p1.inQ_0 	rmtqueue-drop:last 	-nan
attr source  count(RMTQueue_Drop)
attr title  "dropped PDUs, last"
scalar randPrefNet.RfIc.relayIpc.relayAndMux.p1.outQ_0 	rmtqueue-drop:last 	-nan
attr source  count(RMTQueue_Drop)
attr title  "dropped PDUs, last"
scalar randPrefNet.RfIc.relayIpc.relayAndMux.p2.port 	rmtport-down:last 	6
attr source  count(RMTPort_PassDown)
attr title  "msg passed down, last"
scalar randPrefNet.RfIc.relayIpc.relayAndMux.p2.port 	rmtport-up:last 	7
attr ""  ""
attr source  count(RMTPort_PassUp)
attr title  "msg passed up, last"
scalar randPrefNet.RfIc.relayIpc.relayAndMux.p2.inQ_M 	rmtqueue-drop:last 	-nan
attr source  count(RMTQueue_Drop)
attr title  "dropped PDUs, last"
scalar randPrefNet.RfIc.relayIpc.relayAndMux.p2.outQ_M 	rmtqueue-drop:last 	-nan
attr source  count(RMTQueue_Drop)
attr title  "dropped PDUs, last"
scalar randPrefNet.RfIc.relayIpc.relayAndMux.p2.inQ_0 	rmtqueue-drop:last 	-nan
attr source  count(RMTQueue_Drop)
attr title  "dropped PDUs, last"
scalar randPrefNet.RfIc.relayIpc.relayAndMux.p2.outQ_0 	rmtqueue-drop:last 	-nan
attr source  count(RMTQueue_Drop)
attr title  "dropped PDUs, last"
scalar randPrefNet.RfIc.relayIpc.relayAndMux.p3.port 	rmtport-down:last 	6
attr source  count(RMTPort_PassDown)
attr title  "msg passed down, last"
scalar randPrefNet.RfIc.relayIpc.relayAndMux.p3.port 	rmtport-up:last 	7
attr ""  ""
attr source  count(RMTPort_PassUp)
attr title  "msg passed up, last"
scalar randPrefNet.RfIc.relayIpc.relayAndMux.p3.inQ_M 	rmtqueue-drop:last 	-nan
attr source  count(RMTQueue_Drop)
attr title  "dropped PDUs, last"
scalar randPrefNet.RfIc.relayIpc.relayAndMux.p3.outQ_M 	rmtqueue-drop:last 	-nan
attr source  count(RMTQueue_Drop)
attr title  "dropped PDUs, last"
scalar randPrefNet.RfIc.relayIpc.relayAndMux.p3.inQ_0 	rmtqueue-drop:last 	-nan
attr source  count(RMTQueue_Drop)
attr title  "dropped PDUs, last"
scalar randPrefNet.RfIc.relayIpc.relayAndMux.p3.outQ_0 	rmtqueue-drop:last 	-nan
attr source  count(RMTQueue_Drop)
attr title  "dropped PDUs, last"
scalar randPrefNet.RfIc.relayIpc.relayAndMux.p4.port 	rmtport-down:last 	6
attr source  count(RMTPort_PassDown)
attr title  "msg passed down, last"
scalar randPrefNet.RfIc.relayIpc.relayAndMux.p4.port 	rmtport-up:last 	6
attr ""  ""
attr source  count(RMTPort_PassUp)
attr title  "msg passed up, last"
scalar randPrefNet.RfIc.relayIpc.relayAndMux.p4.inQ_M 	rmtqueue-drop:last 	-nan
attr source  count(RMTQueue_Drop)
attr title  "dropped PDUs, last"
scalar randPrefNet.RfIc.relayIpc.relayAndMux.p4.outQ_M 	rmtqueue-drop:last 	-nan
attr source  count(RMTQueue_Drop)
attr title  "dropped PDUs, last"
scalar randPrefNet.RfIc.relayIpc.relayAndMux.p4.inQ_0 	rmtqueue-drop:last 	-nan
attr source  count(RMTQueue_Drop)
attr title  "dropped PDUs, last"
scalar randPrefNet.RfIc.relayIpc.relayAndMux.p4.outQ_0 	rmtqueue-drop:last 	-nan
attr source  count(RMTQueue_Drop)
attr title  "dropped PDUs, last"
scalar randPrefNet.RfIc.relayIpc.relayAndMux.p5.port 	rmtport-down:last 	6
attr source  count(RMTPort_PassDown)
attr title  "msg passed down, last"
scalar randPrefNet.RfIc.relayIpc.relayAndMux.p5.port 	rmtport-up:last 	6
attr ""  ""
attr source  count(RMTPort_PassUp)
attr title  "msg passed up, last"
scalar randPrefNet.RfIc.relayIpc.relayAndMux.p5.inQ_M 	rmtqueue-drop:last 	-nan
attr source  count(RMTQueue_Drop)
attr title  "dropped PDUs, last"
scalar randPrefNet.RfIc.relayIpc.relayAndMux.p5.outQ_M 	rmtqueue-drop:last 	-nan
attr source  count(RMTQueue_Drop)
attr title  "dropped PDUs, last"
scalar randPrefNet.RfIc.relayIpc.relayAndMux.p5.inQ_0 	rmtqueue-drop:last 	-nan
attr source  count(RMTQueue_Drop)
attr title  "dropped PDUs, last"
scalar randPrefNet.RfIc.relayIpc.relayAndMux.p5.outQ_0 	rmtqueue-drop:last 	-nan
attr source  count(RMTQueue_Drop)
attr title  "dropped PDUs, last"
scalar randPrefNet.RfId.ipcProcess[0].relayAndMux.p0.port 	rmtport-down:last 	13
attr source  count(RMTPort_PassDown)
attr title  "msg passed down, last"
scalar randPrefNet.RfId.ipcProcess[0].relayAndMux.p0.port 	rmtport-up:last 	13
attr ""  ""
attr source  count(RMTPort_PassUp)
attr title  "msg passed up, last"
scalar randPrefNet.RfId.ipcProcess[0].relayAndMux.p0.inQ_M 	rmtqueue-drop:last 	-nan
attr source  count(RMTQueue_Drop)
attr title  "dropped PDUs, last"
scalar randPrefNet.RfId.ipcProcess[0].relayAndMux.p0.outQ_M 	rmtqueue-drop:last 	-nan
attr source  count(RMTQueue_Drop)
attr title  "dropped PDUs, last"
scalar randPrefNet.RfId.ipcProcess[0].relayAndMux.p0.inQ_0 	rmtqueue-drop:last 	-nan
attr source  count(RMTQueue_Drop)
attr title  "dropped PDUs, last"
scalar randPrefNet.RfId.ipcProcess[0].relayAndMux.p0.outQ_0 	rmtqueue-drop:last 	-nan
attr source  count(RMTQueue_Drop)
attr title  "dropped PDUs, last"
scalar randPrefNet.RfId.ipcProcess[1].relayAndMux.p0.port 	rmtport-down:last 	13
attr source  count(RMTPort_PassDown)
attr title  "msg passed down, last"
scalar randPrefNet.RfId.ipcProcess[1].relayAndMux.p0.port 	rmtport-up:last 	13
attr ""  ""
attr source  count(RMTPort_PassUp)
attr title  "msg passed up, last"
scalar randPrefNet.RfId.ipcProcess[1].relayAndMux.p0.inQ_M 	rmtqueue-drop:last 	-nan
attr source  count(RMTQueue_Drop)
attr title  "dropped PDUs, last"
scalar randPrefNet.RfId.ipcProcess[1].relayAndMux.p0.outQ_M 	rmtqueue-drop:last 	-nan
attr source  count(RMTQueue_Drop)
attr title  "dropped PDUs, last"
scalar randPrefNet.RfId.ipcProcess[1].relayAndMux.p0.inQ_0 	rmtqueue-drop:last 	-nan
attr source  count(RMTQueue_Drop)
attr title  "dropped PDUs, last"
scalar randPrefNet.RfId.ipcProcess[1].relayAndMux.p0.outQ_0 	rmtqueue-drop:last 	-nan
attr source  count(RMTQueue_Drop)
attr title  "dropped PDUs, last"
scalar randPrefNet.RfId.relayIpc.relayAndMux.p0.port 	rmtport-down:last 	6
attr source  count(RMTPort_PassDown)
attr title  "msg passed down, last"
scalar randPrefNet.RfId.relayIpc.relayAndMux.p0.port 	rmtport-up:last 	6
attr ""  ""
attr source  count(RMTPort_PassUp)
attr title  "msg passed up, last"
scalar randPrefNet.RfId.relayIpc.relayAndMux.p0.inQ_M 	rmtqueue-drop:last 	-nan
attr source  count(RMTQueue_Drop)
attr title  "dropped PDUs, last"
scalar randPrefNet.RfId.relayIpc.relayAndMux.p0.outQ_M 	rmtqueue-drop:last 	-nan
attr source  count(RMTQueue_Drop)
attr title  "dropped PDUs, last"
scalar randPrefNet.RfId.relayIpc.relayAndMux.p0.inQ_0 	rmtqueue-drop:last 	-nan
attr source  count(RMTQueue_Drop)
attr title  "dropped PDUs, last"
scalar randPrefNet.RfId.relayIpc.relayAndMux.p0.outQ_0 	rmtqueue-drop:last 	-nan
attr source  count(RMTQueue_Drop)
attr title  "dropped PDUs, last"
scalar randPrefNet.RfId.relayIpc.relayAndMux.p1.port 	rmtport-down:last 	6
attr source  count(RMTPort_PassDown)
attr title  "msg passed down, last"
scalar randPrefNet.RfId.relayIpc.relayAndMux.p1.port 	rmtport-up:last 	6
attr ""  ""
attr source  count(RMTPort_PassUp)
attr title  "msg passed up, last"
scalar randPrefNet.RfId.relayIpc.relayAndMux.p1.inQ_M 	rmtqueue-drop:last 	-nan
attr source  count(RMTQueue_Drop)
attr title  "dropped PDUs, last"
scalar randPrefNet.RfId.relayIpc.relayAndMux.p1.outQ_M 	rmtqueue-drop:last 	-nan
attr source  count(RMTQueue_Drop)
attr title  "dropped PDUs, last"
scalar randPrefNet.RfId.relayIpc.relayAndMux.p1.inQ_0 	rmtqueue-drop:last 	-nan
attr source  count(RMTQueue_Drop)
attr title  "dropped PDUs, last"
scalar randPrefNet.RfId.relayIpc.relayAndMux.p1.outQ_0 	rmtqueue-drop:last 	-nan
attr source  count(RMTQueue_Drop)
attr title  "dropped PDUs, last"
