version 2
run General-0-20150310-09:57:55-32087
attr configname General
attr datetime 20150310-09:57:55
attr experiment General
attr inifile omnetpp.ini
attr iterationvars ""
attr iterationvars2 $repetition=0
attr measurement ""
attr network randPrefNet
attr processid 32087
attr repetition 0
attr replication #0
attr resultdir results
attr runnumber 0
attr seedset 0

scalar randPrefNet.R1I1.ipcProcess[0].relayAndMux.p0.port 	rmtport-down:last 	19
attr source  count(RMTPort_PassDown)
attr title  "msg passed down, last"
scalar randPrefNet.R1I1.ipcProcess[0].relayAndMux.p0.port 	rmtport-up:last 	19
attr ""  ""
attr source  count(RMTPort_PassUp)
attr title  "msg passed up, last"
scalar randPrefNet.R1I1.ipcProcess[0].relayAndMux.p0.inQ_M 	rmtqueue-drop:last 	-nan
attr source  count(RMTQueue_Drop)
attr title  "dropped PDUs, last"
scalar randPrefNet.R1I1.ipcProcess[0].relayAndMux.p0.outQ_M 	rmtqueue-drop:last 	-nan
attr source  count(RMTQueue_Drop)
attr title  "dropped PDUs, last"
scalar randPrefNet.R1I1.ipcProcess[0].relayAndMux.p0.inQ_0 	rmtqueue-drop:last 	-nan
attr source  count(RMTQueue_Drop)
attr title  "dropped PDUs, last"
scalar randPrefNet.R1I1.ipcProcess[0].relayAndMux.p0.outQ_0 	rmtqueue-drop:last 	-nan
attr source  count(RMTQueue_Drop)
attr title  "dropped PDUs, last"
scalar randPrefNet.R1I1.ipcProcess[1].relayAndMux.p0.port 	rmtport-down:last 	19
attr source  count(RMTPort_PassDown)
attr title  "msg passed down, last"
scalar randPrefNet.R1I1.ipcProcess[1].relayAndMux.p0.port 	rmtport-up:last 	19
attr ""  ""
attr source  count(RMTPort_PassUp)
attr title  "msg passed up, last"
scalar randPrefNet.R1I1.ipcProcess[1].relayAndMux.p0.inQ_M 	rmtqueue-drop:last 	-nan
attr source  count(RMTQueue_Drop)
attr title  "dropped PDUs, last"
scalar randPrefNet.R1I1.ipcProcess[1].relayAndMux.p0.outQ_M 	rmtqueue-drop:last 	-nan
attr source  count(RMTQueue_Drop)
attr title  "dropped PDUs, last"
scalar randPrefNet.R1I1.ipcProcess[1].relayAndMux.p0.inQ_0 	rmtqueue-drop:last 	-nan
attr source  count(RMTQueue_Drop)
attr title  "dropped PDUs, last"
scalar randPrefNet.R1I1.ipcProcess[1].relayAndMux.p0.outQ_0 	rmtqueue-drop:last 	-nan
attr source  count(RMTQueue_Drop)
attr title  "dropped PDUs, last"
scalar randPrefNet.R1I1.ipcProcess[2].relayAndMux.p0.port 	rmtport-down:last 	19
attr source  count(RMTPort_PassDown)
attr title  "msg passed down, last"
scalar randPrefNet.R1I1.ipcProcess[2].relayAndMux.p0.port 	rmtport-up:last 	19
attr ""  ""
attr source  count(RMTPort_PassUp)
attr title  "msg passed up, last"
scalar randPrefNet.R1I1.ipcProcess[2].relayAndMux.p0.inQ_M 	rmtqueue-drop:last 	-nan
attr source  count(RMTQueue_Drop)
attr title  "dropped PDUs, last"
scalar randPrefNet.R1I1.ipcProcess[2].relayAndMux.p0.outQ_M 	rmtqueue-drop:last 	-nan
attr source  count(RMTQueue_Drop)
attr title  "dropped PDUs, last"
scalar randPrefNet.R1I1.ipcProcess[2].relayAndMux.p0.inQ_0 	rmtqueue-drop:last 	-nan
attr source  count(RMTQueue_Drop)
attr title  "dropped PDUs, last"
scalar randPrefNet.R1I1.ipcProcess[2].relayAndMux.p0.outQ_0 	rmtqueue-drop:last 	-nan
attr source  count(RMTQueue_Drop)
attr title  "dropped PDUs, last"
scalar randPrefNet.R1I1.ipcProcess[3].relayAndMux.p0.port 	rmtport-down:last 	19
attr source  count(RMTPort_PassDown)
attr title  "msg passed down, last"
scalar randPrefNet.R1I1.ipcProcess[3].relayAndMux.p0.port 	rmtport-up:last 	19
attr ""  ""
attr source  count(RMTPort_PassUp)
attr title  "msg passed up, last"
scalar randPrefNet.R1I1.ipcProcess[3].relayAndMux.p0.inQ_M 	rmtqueue-drop:last 	-nan
attr source  count(RMTQueue_Drop)
attr title  "dropped PDUs, last"
scalar randPrefNet.R1I1.ipcProcess[3].relayAndMux.p0.outQ_M 	rmtqueue-drop:last 	-nan
attr source  count(RMTQueue_Drop)
attr title  "dropped PDUs, last"
scalar randPrefNet.R1I1.ipcProcess[3].relayAndMux.p0.inQ_0 	rmtqueue-drop:last 	-nan
attr source  count(RMTQueue_Drop)
attr title  "dropped PDUs, last"
scalar randPrefNet.R1I1.ipcProcess[3].relayAndMux.p0.outQ_0 	rmtqueue-drop:last 	-nan
attr source  count(RMTQueue_Drop)
attr title  "dropped PDUs, last"
scalar randPrefNet.R1I1.relayIpc.relayAndMux.p0.port 	rmtport-down:last 	9
attr source  count(RMTPort_PassDown)
attr title  "msg passed down, last"
scalar randPrefNet.R1I1.relayIpc.relayAndMux.p0.port 	rmtport-up:last 	9
attr ""  ""
attr source  count(RMTPort_PassUp)
attr title  "msg passed up, last"
scalar randPrefNet.R1I1.relayIpc.relayAndMux.p0.inQ_M 	rmtqueue-drop:last 	-nan
attr source  count(RMTQueue_Drop)
attr title  "dropped PDUs, last"
scalar randPrefNet.R1I1.relayIpc.relayAndMux.p0.outQ_M 	rmtqueue-drop:last 	-nan
attr source  count(RMTQueue_Drop)
attr title  "dropped PDUs, last"
scalar randPrefNet.R1I1.relayIpc.relayAndMux.p0.inQ_0 	rmtqueue-drop:last 	-nan
attr source  count(RMTQueue_Drop)
attr title  "dropped PDUs, last"
scalar randPrefNet.R1I1.relayIpc.relayAndMux.p0.outQ_0 	rmtqueue-drop:last 	-nan
attr source  count(RMTQueue_Drop)
attr title  "dropped PDUs, last"
scalar randPrefNet.R1I1.relayIpc.relayAndMux.p1.port 	rmtport-down:last 	9
attr source  count(RMTPort_PassDown)
attr title  "msg passed down, last"
scalar randPrefNet.R1I1.relayIpc.relayAndMux.p1.port 	rmtport-up:last 	9
attr ""  ""
attr source  count(RMTPort_PassUp)
attr title  "msg passed up, last"
scalar randPrefNet.R1I1.relayIpc.relayAndMux.p1.inQ_M 	rmtqueue-drop:last 	-nan
attr source  count(RMTQueue_Drop)
attr title  "dropped PDUs, last"
scalar randPrefNet.R1I1.relayIpc.relayAndMux.p1.outQ_M 	rmtqueue-drop:last 	-nan
attr source  count(RMTQueue_Drop)
attr title  "dropped PDUs, last"
scalar randPrefNet.R1I1.relayIpc.relayAndMux.p1.inQ_0 	rmtqueue-drop:last 	-nan
attr source  count(RMTQueue_Drop)
attr title  "dropped PDUs, last"
scalar randPrefNet.R1I1.relayIpc.relayAndMux.p1.outQ_0 	rmtqueue-drop:last 	-nan
attr source  count(RMTQueue_Drop)
attr title  "dropped PDUs, last"
scalar randPrefNet.R1I1.relayIpc.relayAndMux.p2.port 	rmtport-down:last 	9
attr source  count(RMTPort_PassDown)
attr title  "msg passed down, last"
scalar randPrefNet.R1I1.relayIpc.relayAndMux.p2.port 	rmtport-up:last 	9
attr ""  ""
attr source  count(RMTPort_PassUp)
attr title  "msg passed up, last"
scalar randPrefNet.R1I1.relayIpc.relayAndMux.p2.inQ_M 	rmtqueue-drop:last 	-nan
attr source  count(RMTQueue_Drop)
attr title  "dropped PDUs, last"
scalar randPrefNet.R1I1.relayIpc.relayAndMux.p2.outQ_M 	rmtqueue-drop:last 	-nan
attr source  count(RMTQueue_Drop)
attr title  "dropped PDUs, last"
scalar randPrefNet.R1I1.relayIpc.relayAndMux.p2.inQ_0 	rmtqueue-drop:last 	-nan
attr source  count(RMTQueue_Drop)
attr title  "dropped PDUs, last"
scalar randPrefNet.R1I1.relayIpc.relayAndMux.p2.outQ_0 	rmtqueue-drop:last 	-nan
attr source  count(RMTQueue_Drop)
attr title  "dropped PDUs, last"
scalar randPrefNet.R1I1.relayIpc.relayAndMux.p3.port 	rmtport-down:last 	9
attr source  count(RMTPort_PassDown)
attr title  "msg passed down, last"
scalar randPrefNet.R1I1.relayIpc.relayAndMux.p3.port 	rmtport-up:last 	9
attr ""  ""
attr source  count(RMTPort_PassUp)
attr title  "msg passed up, last"
scalar randPrefNet.R1I1.relayIpc.relayAndMux.p3.inQ_M 	rmtqueue-drop:last 	-nan
attr source  count(RMTQueue_Drop)
attr title  "dropped PDUs, last"
scalar randPrefNet.R1I1.relayIpc.relayAndMux.p3.outQ_M 	rmtqueue-drop:last 	-nan
attr source  count(RMTQueue_Drop)
attr title  "dropped PDUs, last"
scalar randPrefNet.R1I1.relayIpc.relayAndMux.p3.inQ_0 	rmtqueue-drop:last 	-nan
attr source  count(RMTQueue_Drop)
attr title  "dropped PDUs, last"
scalar randPrefNet.R1I1.relayIpc.relayAndMux.p3.outQ_0 	rmtqueue-drop:last 	-nan
attr source  count(RMTQueue_Drop)
attr title  "dropped PDUs, last"
scalar randPrefNet.R1I2.ipcProcess[0].relayAndMux.p0.port 	rmtport-down:last 	19
attr source  count(RMTPort_PassDown)
attr title  "msg passed down, last"
scalar randPrefNet.R1I2.ipcProcess[0].relayAndMux.p0.port 	rmtport-up:last 	19
attr ""  ""
attr source  count(RMTPort_PassUp)
attr title  "msg passed up, last"
scalar randPrefNet.R1I2.ipcProcess[0].relayAndMux.p0.inQ_M 	rmtqueue-drop:last 	-nan
attr source  count(RMTQueue_Drop)
attr title  "dropped PDUs, last"
scalar randPrefNet.R1I2.ipcProcess[0].relayAndMux.p0.outQ_M 	rmtqueue-drop:last 	-nan
attr source  count(RMTQueue_Drop)
attr title  "dropped PDUs, last"
scalar randPrefNet.R1I2.ipcProcess[0].relayAndMux.p0.inQ_0 	rmtqueue-drop:last 	-nan
attr source  count(RMTQueue_Drop)
attr title  "dropped PDUs, last"
scalar randPrefNet.R1I2.ipcProcess[0].relayAndMux.p0.outQ_0 	rmtqueue-drop:last 	-nan
attr source  count(RMTQueue_Drop)
attr title  "dropped PDUs, last"
scalar randPrefNet.R1I2.ipcProcess[1].relayAndMux.p0.port 	rmtport-down:last 	19
attr source  count(RMTPort_PassDown)
attr title  "msg passed down, last"
scalar randPrefNet.R1I2.ipcProcess[1].relayAndMux.p0.port 	rmtport-up:last 	19
attr ""  ""
attr source  count(RMTPort_PassUp)
attr title  "msg passed up, last"
scalar randPrefNet.R1I2.ipcProcess[1].relayAndMux.p0.inQ_M 	rmtqueue-drop:last 	-nan
attr source  count(RMTQueue_Drop)
attr title  "dropped PDUs, last"
scalar randPrefNet.R1I2.ipcProcess[1].relayAndMux.p0.outQ_M 	rmtqueue-drop:last 	-nan
attr source  count(RMTQueue_Drop)
attr title  "dropped PDUs, last"
scalar randPrefNet.R1I2.ipcProcess[1].relayAndMux.p0.inQ_0 	rmtqueue-drop:last 	-nan
attr source  count(RMTQueue_Drop)
attr title  "dropped PDUs, last"
scalar randPrefNet.R1I2.ipcProcess[1].relayAndMux.p0.outQ_0 	rmtqueue-drop:last 	-nan
attr source  count(RMTQueue_Drop)
attr title  "dropped PDUs, last"
scalar randPrefNet.R1I2.ipcProcess[2].relayAndMux.p0.port 	rmtport-down:last 	19
attr source  count(RMTPort_PassDown)
attr title  "msg passed down, last"
scalar randPrefNet.R1I2.ipcProcess[2].relayAndMux.p0.port 	rmtport-up:last 	19
attr ""  ""
attr source  count(RMTPort_PassUp)
attr title  "msg passed up, last"
scalar randPrefNet.R1I2.ipcProcess[2].relayAndMux.p0.inQ_M 	rmtqueue-drop:last 	-nan
attr source  count(RMTQueue_Drop)
attr title  "dropped PDUs, last"
scalar randPrefNet.R1I2.ipcProcess[2].relayAndMux.p0.outQ_M 	rmtqueue-drop:last 	-nan
attr source  count(RMTQueue_Drop)
attr title  "dropped PDUs, last"
scalar randPrefNet.R1I2.ipcProcess[2].relayAndMux.p0.inQ_0 	rmtqueue-drop:last 	-nan
attr source  count(RMTQueue_Drop)
attr title  "dropped PDUs, last"
scalar randPrefNet.R1I2.ipcProcess[2].relayAndMux.p0.outQ_0 	rmtqueue-drop:last 	-nan
attr source  count(RMTQueue_Drop)
attr title  "dropped PDUs, last"
scalar randPrefNet.R1I2.ipcProcess[3].relayAndMux.p0.port 	rmtport-down:last 	19
attr source  count(RMTPort_PassDown)
attr title  "msg passed down, last"
scalar randPrefNet.R1I2.ipcProcess[3].relayAndMux.p0.port 	rmtport-up:last 	19
attr ""  ""
attr source  count(RMTPort_PassUp)
attr title  "msg passed up, last"
scalar randPrefNet.R1I2.ipcProcess[3].relayAndMux.p0.inQ_M 	rmtqueue-drop:last 	-nan
attr source  count(RMTQueue_Drop)
attr title  "dropped PDUs, last"
scalar randPrefNet.R1I2.ipcProcess[3].relayAndMux.p0.outQ_M 	rmtqueue-drop:last 	-nan
attr source  count(RMTQueue_Drop)
attr title  "dropped PDUs, last"
scalar randPrefNet.R1I2.ipcProcess[3].relayAndMux.p0.inQ_0 	rmtqueue-drop:last 	-nan
attr source  count(RMTQueue_Drop)
attr title  "dropped PDUs, last"
scalar randPrefNet.R1I2.ipcProcess[3].relayAndMux.p0.outQ_0 	rmtqueue-drop:last 	-nan
attr source  count(RMTQueue_Drop)
attr title  "dropped PDUs, last"
scalar randPrefNet.R1I2.relayIpc.relayAndMux.p0.port 	rmtport-down:last 	9
attr source  count(RMTPort_PassDown)
attr title  "msg passed down, last"
scalar randPrefNet.R1I2.relayIpc.relayAndMux.p0.port 	rmtport-up:last 	9
attr ""  ""
attr source  count(RMTPort_PassUp)
attr title  "msg passed up, last"
scalar randPrefNet.R1I2.relayIpc.relayAndMux.p0.inQ_M 	rmtqueue-drop:last 	-nan
attr source  count(RMTQueue_Drop)
attr title  "dropped PDUs, last"
scalar randPrefNet.R1I2.relayIpc.relayAndMux.p0.outQ_M 	rmtqueue-drop:last 	-nan
attr source  count(RMTQueue_Drop)
attr title  "dropped PDUs, last"
scalar randPrefNet.R1I2.relayIpc.relayAndMux.p0.inQ_0 	rmtqueue-drop:last 	-nan
attr source  count(RMTQueue_Drop)
attr title  "dropped PDUs, last"
scalar randPrefNet.R1I2.relayIpc.relayAndMux.p0.outQ_0 	rmtqueue-drop:last 	-nan
attr source  count(RMTQueue_Drop)
attr title  "dropped PDUs, last"
scalar randPrefNet.R1I2.relayIpc.relayAndMux.p1.port 	rmtport-down:last 	9
attr source  count(RMTPort_PassDown)
attr title  "msg passed down, last"
scalar randPrefNet.R1I2.relayIpc.relayAndMux.p1.port 	rmtport-up:last 	9
attr ""  ""
attr source  count(RMTPort_PassUp)
attr title  "msg passed up, last"
scalar randPrefNet.R1I2.relayIpc.relayAndMux.p1.inQ_M 	rmtqueue-drop:last 	-nan
attr source  count(RMTQueue_Drop)
attr title  "dropped PDUs, last"
scalar randPrefNet.R1I2.relayIpc.relayAndMux.p1.outQ_M 	rmtqueue-drop:last 	-nan
attr source  count(RMTQueue_Drop)
attr title  "dropped PDUs, last"
scalar randPrefNet.R1I2.relayIpc.relayAndMux.p1.inQ_0 	rmtqueue-drop:last 	-nan
attr source  count(RMTQueue_Drop)
attr title  "dropped PDUs, last"
scalar randPrefNet.R1I2.relayIpc.relayAndMux.p1.outQ_0 	rmtqueue-drop:last 	-nan
attr source  count(RMTQueue_Drop)
attr title  "dropped PDUs, last"
scalar randPrefNet.R1I2.relayIpc.relayAndMux.p2.port 	rmtport-down:last 	9
attr source  count(RMTPort_PassDown)
attr title  "msg passed down, last"
scalar randPrefNet.R1I2.relayIpc.relayAndMux.p2.port 	rmtport-up:last 	9
attr ""  ""
attr source  count(RMTPort_PassUp)
attr title  "msg passed up, last"
scalar randPrefNet.R1I2.relayIpc.relayAndMux.p2.inQ_M 	rmtqueue-drop:last 	-nan
attr source  count(RMTQueue_Drop)
attr title  "dropped PDUs, last"
scalar randPrefNet.R1I2.relayIpc.relayAndMux.p2.outQ_M 	rmtqueue-drop:last 	-nan
attr source  count(RMTQueue_Drop)
attr title  "dropped PDUs, last"
scalar randPrefNet.R1I2.relayIpc.relayAndMux.p2.inQ_0 	rmtqueue-drop:last 	-nan
attr source  count(RMTQueue_Drop)
attr title  "dropped PDUs, last"
scalar randPrefNet.R1I2.relayIpc.relayAndMux.p2.outQ_0 	rmtqueue-drop:last 	-nan
attr source  count(RMTQueue_Drop)
attr title  "dropped PDUs, last"
scalar randPrefNet.R1I2.relayIpc.relayAndMux.p3.port 	rmtport-down:last 	9
attr source  count(RMTPort_PassDown)
attr title  "msg passed down, last"
scalar randPrefNet.R1I2.relayIpc.relayAndMux.p3.port 	rmtport-up:last 	9
attr ""  ""
attr source  count(RMTPort_PassUp)
attr title  "msg passed up, last"
scalar randPrefNet.R1I2.relayIpc.relayAndMux.p3.inQ_M 	rmtqueue-drop:last 	-nan
attr source  count(RMTQueue_Drop)
attr title  "dropped PDUs, last"
scalar randPrefNet.R1I2.relayIpc.relayAndMux.p3.outQ_M 	rmtqueue-drop:last 	-nan
attr source  count(RMTQueue_Drop)
attr title  "dropped PDUs, last"
scalar randPrefNet.R1I2.relayIpc.relayAndMux.p3.inQ_0 	rmtqueue-drop:last 	-nan
attr source  count(RMTQueue_Drop)
attr title  "dropped PDUs, last"
scalar randPrefNet.R1I2.relayIpc.relayAndMux.p3.outQ_0 	rmtqueue-drop:last 	-nan
attr source  count(RMTQueue_Drop)
attr title  "dropped PDUs, last"
scalar randPrefNet.R1I3.ipcProcess[0].relayAndMux.p0.port 	rmtport-down:last 	19
attr source  count(RMTPort_PassDown)
attr title  "msg passed down, last"
scalar randPrefNet.R1I3.ipcProcess[0].relayAndMux.p0.port 	rmtport-up:last 	19
attr ""  ""
attr source  count(RMTPort_PassUp)
attr title  "msg passed up, last"
scalar randPrefNet.R1I3.ipcProcess[0].relayAndMux.p0.inQ_M 	rmtqueue-drop:last 	-nan
attr source  count(RMTQueue_Drop)
attr title  "dropped PDUs, last"
scalar randPrefNet.R1I3.ipcProcess[0].relayAndMux.p0.outQ_M 	rmtqueue-drop:last 	-nan
attr source  count(RMTQueue_Drop)
attr title  "dropped PDUs, last"
scalar randPrefNet.R1I3.ipcProcess[0].relayAndMux.p0.inQ_0 	rmtqueue-drop:last 	-nan
attr source  count(RMTQueue_Drop)
attr title  "dropped PDUs, last"
scalar randPrefNet.R1I3.ipcProcess[0].relayAndMux.p0.outQ_0 	rmtqueue-drop:last 	-nan
attr source  count(RMTQueue_Drop)
attr title  "dropped PDUs, last"
scalar randPrefNet.R1I3.ipcProcess[1].relayAndMux.p0.port 	rmtport-down:last 	19
attr source  count(RMTPort_PassDown)
attr title  "msg passed down, last"
scalar randPrefNet.R1I3.ipcProcess[1].relayAndMux.p0.port 	rmtport-up:last 	19
attr ""  ""
attr source  count(RMTPort_PassUp)
attr title  "msg passed up, last"
scalar randPrefNet.R1I3.ipcProcess[1].relayAndMux.p0.inQ_M 	rmtqueue-drop:last 	-nan
attr source  count(RMTQueue_Drop)
attr title  "dropped PDUs, last"
scalar randPrefNet.R1I3.ipcProcess[1].relayAndMux.p0.outQ_M 	rmtqueue-drop:last 	-nan
attr source  count(RMTQueue_Drop)
attr title  "dropped PDUs, last"
scalar randPrefNet.R1I3.ipcProcess[1].relayAndMux.p0.inQ_0 	rmtqueue-drop:last 	-nan
attr source  count(RMTQueue_Drop)
attr title  "dropped PDUs, last"
scalar randPrefNet.R1I3.ipcProcess[1].relayAndMux.p0.outQ_0 	rmtqueue-drop:last 	-nan
attr source  count(RMTQueue_Drop)
attr title  "dropped PDUs, last"
scalar randPrefNet.R1I3.ipcProcess[2].relayAndMux.p0.port 	rmtport-down:last 	19
attr source  count(RMTPort_PassDown)
attr title  "msg passed down, last"
scalar randPrefNet.R1I3.ipcProcess[2].relayAndMux.p0.port 	rmtport-up:last 	19
attr ""  ""
attr source  count(RMTPort_PassUp)
attr title  "msg passed up, last"
scalar randPrefNet.R1I3.ipcProcess[2].relayAndMux.p0.inQ_M 	rmtqueue-drop:last 	-nan
attr source  count(RMTQueue_Drop)
attr title  "dropped PDUs, last"
scalar randPrefNet.R1I3.ipcProcess[2].relayAndMux.p0.outQ_M 	rmtqueue-drop:last 	-nan
attr source  count(RMTQueue_Drop)
attr title  "dropped PDUs, last"
scalar randPrefNet.R1I3.ipcProcess[2].relayAndMux.p0.inQ_0 	rmtqueue-drop:last 	-nan
attr source  count(RMTQueue_Drop)
attr title  "dropped PDUs, last"
scalar randPrefNet.R1I3.ipcProcess[2].relayAndMux.p0.outQ_0 	rmtqueue-drop:last 	-nan
attr source  count(RMTQueue_Drop)
attr title  "dropped PDUs, last"
scalar randPrefNet.R1I3.ipcProcess[3].relayAndMux.p0.port 	rmtport-down:last 	19
attr source  count(RMTPort_PassDown)
attr title  "msg passed down, last"
scalar randPrefNet.R1I3.ipcProcess[3].relayAndMux.p0.port 	rmtport-up:last 	19
attr ""  ""
attr source  count(RMTPort_PassUp)
attr title  "msg passed up, last"
scalar randPrefNet.R1I3.ipcProcess[3].relayAndMux.p0.inQ_M 	rmtqueue-drop:last 	-nan
attr source  count(RMTQueue_Drop)
attr title  "dropped PDUs, last"
scalar randPrefNet.R1I3.ipcProcess[3].relayAndMux.p0.outQ_M 	rmtqueue-drop:last 	-nan
attr source  count(RMTQueue_Drop)
attr title  "dropped PDUs, last"
scalar randPrefNet.R1I3.ipcProcess[3].relayAndMux.p0.inQ_0 	rmtqueue-drop:last 	-nan
attr source  count(RMTQueue_Drop)
attr title  "dropped PDUs, last"
scalar randPrefNet.R1I3.ipcProcess[3].relayAndMux.p0.outQ_0 	rmtqueue-drop:last 	-nan
attr source  count(RMTQueue_Drop)
attr title  "dropped PDUs, last"
scalar randPrefNet.R1I3.ipcProcess[4].relayAndMux.p0.port 	rmtport-down:last 	19
attr source  count(RMTPort_PassDown)
attr title  "msg passed down, last"
scalar randPrefNet.R1I3.ipcProcess[4].relayAndMux.p0.port 	rmtport-up:last 	19
attr ""  ""
attr source  count(RMTPort_PassUp)
attr title  "msg passed up, last"
scalar randPrefNet.R1I3.ipcProcess[4].relayAndMux.p0.inQ_M 	rmtqueue-drop:last 	-nan
attr source  count(RMTQueue_Drop)
attr title  "dropped PDUs, last"
scalar randPrefNet.R1I3.ipcProcess[4].relayAndMux.p0.outQ_M 	rmtqueue-drop:last 	-nan
attr source  count(RMTQueue_Drop)
attr title  "dropped PDUs, last"
scalar randPrefNet.R1I3.ipcProcess[4].relayAndMux.p0.inQ_0 	rmtqueue-drop:last 	-nan
attr source  count(RMTQueue_Drop)
attr title  "dropped PDUs, last"
scalar randPrefNet.R1I3.ipcProcess[4].relayAndMux.p0.outQ_0 	rmtqueue-drop:last 	-nan
attr source  count(RMTQueue_Drop)
attr title  "dropped PDUs, last"
scalar randPrefNet.R1I3.ipcProcess[5].relayAndMux.p0.port 	rmtport-down:last 	19
attr source  count(RMTPort_PassDown)
attr title  "msg passed down, last"
scalar randPrefNet.R1I3.ipcProcess[5].relayAndMux.p0.port 	rmtport-up:last 	19
attr ""  ""
attr source  count(RMTPort_PassUp)
attr title  "msg passed up, last"
scalar randPrefNet.R1I3.ipcProcess[5].relayAndMux.p0.inQ_M 	rmtqueue-drop:last 	-nan
attr source  count(RMTQueue_Drop)
attr title  "dropped PDUs, last"
scalar randPrefNet.R1I3.ipcProcess[5].relayAndMux.p0.outQ_M 	rmtqueue-drop:last 	-nan
attr source  count(RMTQueue_Drop)
attr title  "dropped PDUs, last"
scalar randPrefNet.R1I3.ipcProcess[5].relayAndMux.p0.inQ_0 	rmtqueue-drop:last 	-nan
attr source  count(RMTQueue_Drop)
attr title  "dropped PDUs, last"
scalar randPrefNet.R1I3.ipcProcess[5].relayAndMux.p0.outQ_0 	rmtqueue-drop:last 	-nan
attr source  count(RMTQueue_Drop)
attr title  "dropped PDUs, last"
scalar randPrefNet.R1I3.relayIpc.relayAndMux.p0.port 	rmtport-down:last 	9
attr source  count(RMTPort_PassDown)
attr title  "msg passed down, last"
scalar randPrefNet.R1I3.relayIpc.relayAndMux.p0.port 	rmtport-up:last 	9
attr ""  ""
attr source  count(RMTPort_PassUp)
attr title  "msg passed up, last"
scalar randPrefNet.R1I3.relayIpc.relayAndMux.p0.inQ_M 	rmtqueue-drop:last 	-nan
attr source  count(RMTQueue_Drop)
attr title  "dropped PDUs, last"
scalar randPrefNet.R1I3.relayIpc.relayAndMux.p0.outQ_M 	rmtqueue-drop:last 	-nan
attr source  count(RMTQueue_Drop)
attr title  "dropped PDUs, last"
scalar randPrefNet.R1I3.relayIpc.relayAndMux.p0.inQ_0 	rmtqueue-drop:last 	-nan
attr source  count(RMTQueue_Drop)
attr title  "dropped PDUs, last"
scalar randPrefNet.R1I3.relayIpc.relayAndMux.p0.outQ_0 	rmtqueue-drop:last 	-nan
attr source  count(RMTQueue_Drop)
attr title  "dropped PDUs, last"
scalar randPrefNet.R1I3.relayIpc.relayAndMux.p1.port 	rmtport-down:last 	9
attr source  count(RMTPort_PassDown)
attr title  "msg passed down, last"
scalar randPrefNet.R1I3.relayIpc.relayAndMux.p1.port 	rmtport-up:last 	9
attr ""  ""
attr source  count(RMTPort_PassUp)
attr title  "msg passed up, last"
scalar randPrefNet.R1I3.relayIpc.relayAndMux.p1.inQ_M 	rmtqueue-drop:last 	-nan
attr source  count(RMTQueue_Drop)
attr title  "dropped PDUs, last"
scalar randPrefNet.R1I3.relayIpc.relayAndMux.p1.outQ_M 	rmtqueue-drop:last 	-nan
attr source  count(RMTQueue_Drop)
attr title  "dropped PDUs, last"
scalar randPrefNet.R1I3.relayIpc.relayAndMux.p1.inQ_0 	rmtqueue-drop:last 	-nan
attr source  count(RMTQueue_Drop)
attr title  "dropped PDUs, last"
scalar randPrefNet.R1I3.relayIpc.relayAndMux.p1.outQ_0 	rmtqueue-drop:last 	-nan
attr source  count(RMTQueue_Drop)
attr title  "dropped PDUs, last"
scalar randPrefNet.R1I3.relayIpc.relayAndMux.p2.port 	rmtport-down:last 	9
attr source  count(RMTPort_PassDown)
attr title  "msg passed down, last"
scalar randPrefNet.R1I3.relayIpc.relayAndMux.p2.port 	rmtport-up:last 	9
attr ""  ""
attr source  count(RMTPort_PassUp)
attr title  "msg passed up, last"
scalar randPrefNet.R1I3.relayIpc.relayAndMux.p2.inQ_M 	rmtqueue-drop:last 	-nan
attr source  count(RMTQueue_Drop)
attr title  "dropped PDUs, last"
scalar randPrefNet.R1I3.relayIpc.relayAndMux.p2.outQ_M 	rmtqueue-drop:last 	-nan
attr source  count(RMTQueue_Drop)
attr title  "dropped PDUs, last"
scalar randPrefNet.R1I3.relayIpc.relayAndMux.p2.inQ_0 	rmtqueue-drop:last 	-nan
attr source  count(RMTQueue_Drop)
attr title  "dropped PDUs, last"
scalar randPrefNet.R1I3.relayIpc.relayAndMux.p2.outQ_0 	rmtqueue-drop:last 	-nan
attr source  count(RMTQueue_Drop)
attr title  "dropped PDUs, last"
scalar randPrefNet.R1I3.relayIpc.relayAndMux.p3.port 	rmtport-down:last 	9
attr source  count(RMTPort_PassDown)
attr title  "msg passed down, last"
scalar randPrefNet.R1I3.relayIpc.relayAndMux.p3.port 	rmtport-up:last 	9
attr ""  ""
attr source  count(RMTPort_PassUp)
attr title  "msg passed up, last"
scalar randPrefNet.R1I3.relayIpc.relayAndMux.p3.inQ_M 	rmtqueue-drop:last 	-nan
attr source  count(RMTQueue_Drop)
attr title  "dropped PDUs, last"
scalar randPrefNet.R1I3.relayIpc.relayAndMux.p3.outQ_M 	rmtqueue-drop:last 	-nan
attr source  count(RMTQueue_Drop)
attr title  "dropped PDUs, last"
scalar randPrefNet.R1I3.relayIpc.relayAndMux.p3.inQ_0 	rmtqueue-drop:last 	-nan
attr source  count(RMTQueue_Drop)
attr title  "dropped PDUs, last"
scalar randPrefNet.R1I3.relayIpc.relayAndMux.p3.outQ_0 	rmtqueue-drop:last 	-nan
attr source  count(RMTQueue_Drop)
attr title  "dropped PDUs, last"
scalar randPrefNet.R1I3.relayIpc.relayAndMux.p4.port 	rmtport-down:last 	9
attr source  count(RMTPort_PassDown)
attr title  "msg passed down, last"
scalar randPrefNet.R1I3.relayIpc.relayAndMux.p4.port 	rmtport-up:last 	9
attr ""  ""
attr source  count(RMTPort_PassUp)
attr title  "msg passed up, last"
scalar randPrefNet.R1I3.relayIpc.relayAndMux.p4.inQ_M 	rmtqueue-drop:last 	-nan
attr source  count(RMTQueue_Drop)
attr title  "dropped PDUs, last"
scalar randPrefNet.R1I3.relayIpc.relayAndMux.p4.outQ_M 	rmtqueue-drop:last 	-nan
attr source  count(RMTQueue_Drop)
attr title  "dropped PDUs, last"
scalar randPrefNet.R1I3.relayIpc.relayAndMux.p4.inQ_0 	rmtqueue-drop:last 	-nan
attr source  count(RMTQueue_Drop)
attr title  "dropped PDUs, last"
scalar randPrefNet.R1I3.relayIpc.relayAndMux.p4.outQ_0 	rmtqueue-drop:last 	-nan
attr source  count(RMTQueue_Drop)
attr title  "dropped PDUs, last"
scalar randPrefNet.R1I3.relayIpc.relayAndMux.p5.port 	rmtport-down:last 	9
attr source  count(RMTPort_PassDown)
attr title  "msg passed down, last"
scalar randPrefNet.R1I3.relayIpc.relayAndMux.p5.port 	rmtport-up:last 	9
attr ""  ""
attr source  count(RMTPort_PassUp)
attr title  "msg passed up, last"
scalar randPrefNet.R1I3.relayIpc.relayAndMux.p5.inQ_M 	rmtqueue-drop:last 	-nan
attr source  count(RMTQueue_Drop)
attr title  "dropped PDUs, last"
scalar randPrefNet.R1I3.relayIpc.relayAndMux.p5.outQ_M 	rmtqueue-drop:last 	-nan
attr source  count(RMTQueue_Drop)
attr title  "dropped PDUs, last"
scalar randPrefNet.R1I3.relayIpc.relayAndMux.p5.inQ_0 	rmtqueue-drop:last 	-nan
attr source  count(RMTQueue_Drop)
attr title  "dropped PDUs, last"
scalar randPrefNet.R1I3.relayIpc.relayAndMux.p5.outQ_0 	rmtqueue-drop:last 	-nan
attr source  count(RMTQueue_Drop)
attr title  "dropped PDUs, last"
scalar randPrefNet.R1I4.ipcProcess[0].relayAndMux.p0.port 	rmtport-down:last 	19
attr source  count(RMTPort_PassDown)
attr title  "msg passed down, last"
scalar randPrefNet.R1I4.ipcProcess[0].relayAndMux.p0.port 	rmtport-up:last 	19
attr ""  ""
attr source  count(RMTPort_PassUp)
attr title  "msg passed up, last"
scalar randPrefNet.R1I4.ipcProcess[0].relayAndMux.p0.inQ_M 	rmtqueue-drop:last 	-nan
attr source  count(RMTQueue_Drop)
attr title  "dropped PDUs, last"
scalar randPrefNet.R1I4.ipcProcess[0].relayAndMux.p0.outQ_M 	rmtqueue-drop:last 	-nan
attr source  count(RMTQueue_Drop)
attr title  "dropped PDUs, last"
scalar randPrefNet.R1I4.ipcProcess[0].relayAndMux.p0.inQ_0 	rmtqueue-drop:last 	-nan
attr source  count(RMTQueue_Drop)
attr title  "dropped PDUs, last"
scalar randPrefNet.R1I4.ipcProcess[0].relayAndMux.p0.outQ_0 	rmtqueue-drop:last 	-nan
attr source  count(RMTQueue_Drop)
attr title  "dropped PDUs, last"
scalar randPrefNet.R1I4.ipcProcess[1].relayAndMux.p0.port 	rmtport-down:last 	19
attr source  count(RMTPort_PassDown)
attr title  "msg passed down, last"
scalar randPrefNet.R1I4.ipcProcess[1].relayAndMux.p0.port 	rmtport-up:last 	19
attr ""  ""
attr source  count(RMTPort_PassUp)
attr title  "msg passed up, last"
scalar randPrefNet.R1I4.ipcProcess[1].relayAndMux.p0.inQ_M 	rmtqueue-drop:last 	-nan
attr source  count(RMTQueue_Drop)
attr title  "dropped PDUs, last"
scalar randPrefNet.R1I4.ipcProcess[1].relayAndMux.p0.outQ_M 	rmtqueue-drop:last 	-nan
attr source  count(RMTQueue_Drop)
attr title  "dropped PDUs, last"
scalar randPrefNet.R1I4.ipcProcess[1].relayAndMux.p0.inQ_0 	rmtqueue-drop:last 	-nan
attr source  count(RMTQueue_Drop)
attr title  "dropped PDUs, last"
scalar randPrefNet.R1I4.ipcProcess[1].relayAndMux.p0.outQ_0 	rmtqueue-drop:last 	-nan
attr source  count(RMTQueue_Drop)
attr title  "dropped PDUs, last"
scalar randPrefNet.R1I4.ipcProcess[2].relayAndMux.p0.port 	rmtport-down:last 	19
attr source  count(RMTPort_PassDown)
attr title  "msg passed down, last"
scalar randPrefNet.R1I4.ipcProcess[2].relayAndMux.p0.port 	rmtport-up:last 	19
attr ""  ""
attr source  count(RMTPort_PassUp)
attr title  "msg passed up, last"
scalar randPrefNet.R1I4.ipcProcess[2].relayAndMux.p0.inQ_M 	rmtqueue-drop:last 	-nan
attr source  count(RMTQueue_Drop)
attr title  "dropped PDUs, last"
scalar randPrefNet.R1I4.ipcProcess[2].relayAndMux.p0.outQ_M 	rmtqueue-drop:last 	-nan
attr source  count(RMTQueue_Drop)
attr title  "dropped PDUs, last"
scalar randPrefNet.R1I4.ipcProcess[2].relayAndMux.p0.inQ_0 	rmtqueue-drop:last 	-nan
attr source  count(RMTQueue_Drop)
attr title  "dropped PDUs, last"
scalar randPrefNet.R1I4.ipcProcess[2].relayAndMux.p0.outQ_0 	rmtqueue-drop:last 	-nan
attr source  count(RMTQueue_Drop)
attr title  "dropped PDUs, last"
scalar randPrefNet.R1I4.ipcProcess[3].relayAndMux.p0.port 	rmtport-down:last 	19
attr source  count(RMTPort_PassDown)
attr title  "msg passed down, last"
scalar randPrefNet.R1I4.ipcProcess[3].relayAndMux.p0.port 	rmtport-up:last 	19
attr ""  ""
attr source  count(RMTPort_PassUp)
attr title  "msg passed up, last"
scalar randPrefNet.R1I4.ipcProcess[3].relayAndMux.p0.inQ_M 	rmtqueue-drop:last 	-nan
attr source  count(RMTQueue_Drop)
attr title  "dropped PDUs, last"
scalar randPrefNet.R1I4.ipcProcess[3].relayAndMux.p0.outQ_M 	rmtqueue-drop:last 	-nan
attr source  count(RMTQueue_Drop)
attr title  "dropped PDUs, last"
scalar randPrefNet.R1I4.ipcProcess[3].relayAndMux.p0.inQ_0 	rmtqueue-drop:last 	-nan
attr source  count(RMTQueue_Drop)
attr title  "dropped PDUs, last"
scalar randPrefNet.R1I4.ipcProcess[3].relayAndMux.p0.outQ_0 	rmtqueue-drop:last 	-nan
attr source  count(RMTQueue_Drop)
attr title  "dropped PDUs, last"
scalar randPrefNet.R1I4.ipcProcess[4].relayAndMux.p0.port 	rmtport-down:last 	19
attr source  count(RMTPort_PassDown)
attr title  "msg passed down, last"
scalar randPrefNet.R1I4.ipcProcess[4].relayAndMux.p0.port 	rmtport-up:last 	19
attr ""  ""
attr source  count(RMTPort_PassUp)
attr title  "msg passed up, last"
scalar randPrefNet.R1I4.ipcProcess[4].relayAndMux.p0.inQ_M 	rmtqueue-drop:last 	-nan
attr source  count(RMTQueue_Drop)
attr title  "dropped PDUs, last"
scalar randPrefNet.R1I4.ipcProcess[4].relayAndMux.p0.outQ_M 	rmtqueue-drop:last 	-nan
attr source  count(RMTQueue_Drop)
attr title  "dropped PDUs, last"
scalar randPrefNet.R1I4.ipcProcess[4].relayAndMux.p0.inQ_0 	rmtqueue-drop:last 	-nan
attr source  count(RMTQueue_Drop)
attr title  "dropped PDUs, last"
scalar randPrefNet.R1I4.ipcProcess[4].relayAndMux.p0.outQ_0 	rmtqueue-drop:last 	-nan
attr source  count(RMTQueue_Drop)
attr title  "dropped PDUs, last"
scalar randPrefNet.R1I4.relayIpc.relayAndMux.p0.port 	rmtport-down:last 	9
attr source  count(RMTPort_PassDown)
attr title  "msg passed down, last"
scalar randPrefNet.R1I4.relayIpc.relayAndMux.p0.port 	rmtport-up:last 	9
attr ""  ""
attr source  count(RMTPort_PassUp)
attr title  "msg passed up, last"
scalar randPrefNet.R1I4.relayIpc.relayAndMux.p0.inQ_M 	rmtqueue-drop:last 	-nan
attr source  count(RMTQueue_Drop)
attr title  "dropped PDUs, last"
scalar randPrefNet.R1I4.relayIpc.relayAndMux.p0.outQ_M 	rmtqueue-drop:last 	-nan
attr source  count(RMTQueue_Drop)
attr title  "dropped PDUs, last"
scalar randPrefNet.R1I4.relayIpc.relayAndMux.p0.inQ_0 	rmtqueue-drop:last 	-nan
attr source  count(RMTQueue_Drop)
attr title  "dropped PDUs, last"
scalar randPrefNet.R1I4.relayIpc.relayAndMux.p0.outQ_0 	rmtqueue-drop:last 	-nan
attr source  count(RMTQueue_Drop)
attr title  "dropped PDUs, last"
scalar randPrefNet.R1I4.relayIpc.relayAndMux.p1.port 	rmtport-down:last 	9
attr source  count(RMTPort_PassDown)
attr title  "msg passed down, last"
scalar randPrefNet.R1I4.relayIpc.relayAndMux.p1.port 	rmtport-up:last 	9
attr ""  ""
attr source  count(RMTPort_PassUp)
attr title  "msg passed up, last"
scalar randPrefNet.R1I4.relayIpc.relayAndMux.p1.inQ_M 	rmtqueue-drop:last 	-nan
attr source  count(RMTQueue_Drop)
attr title  "dropped PDUs, last"
scalar randPrefNet.R1I4.relayIpc.relayAndMux.p1.outQ_M 	rmtqueue-drop:last 	-nan
attr source  count(RMTQueue_Drop)
attr title  "dropped PDUs, last"
scalar randPrefNet.R1I4.relayIpc.relayAndMux.p1.inQ_0 	rmtqueue-drop:last 	-nan
attr source  count(RMTQueue_Drop)
attr title  "dropped PDUs, last"
scalar randPrefNet.R1I4.relayIpc.relayAndMux.p1.outQ_0 	rmtqueue-drop:last 	-nan
attr source  count(RMTQueue_Drop)
attr title  "dropped PDUs, last"
scalar randPrefNet.R1I4.relayIpc.relayAndMux.p2.port 	rmtport-down:last 	9
attr source  count(RMTPort_PassDown)
attr title  "msg passed down, last"
scalar randPrefNet.R1I4.relayIpc.relayAndMux.p2.port 	rmtport-up:last 	9
attr ""  ""
attr source  count(RMTPort_PassUp)
attr title  "msg passed up, last"
scalar randPrefNet.R1I4.relayIpc.relayAndMux.p2.inQ_M 	rmtqueue-drop:last 	-nan
attr source  count(RMTQueue_Drop)
attr title  "dropped PDUs, last"
scalar randPrefNet.R1I4.relayIpc.relayAndMux.p2.outQ_M 	rmtqueue-drop:last 	-nan
attr source  count(RMTQueue_Drop)
attr title  "dropped PDUs, last"
scalar randPrefNet.R1I4.relayIpc.relayAndMux.p2.inQ_0 	rmtqueue-drop:last 	-nan
attr source  count(RMTQueue_Drop)
attr title  "dropped PDUs, last"
scalar randPrefNet.R1I4.relayIpc.relayAndMux.p2.outQ_0 	rmtqueue-drop:last 	-nan
attr source  count(RMTQueue_Drop)
attr title  "dropped PDUs, last"
scalar randPrefNet.R1I4.relayIpc.relayAndMux.p3.port 	rmtport-down:last 	9
attr source  count(RMTPort_PassDown)
attr title  "msg passed down, last"
scalar randPrefNet.R1I4.relayIpc.relayAndMux.p3.port 	rmtport-up:last 	9
attr ""  ""
attr source  count(RMTPort_PassUp)
attr title  "msg passed up, last"
scalar randPrefNet.R1I4.relayIpc.relayAndMux.p3.inQ_M 	rmtqueue-drop:last 	-nan
attr source  count(RMTQueue_Drop)
attr title  "dropped PDUs, last"
scalar randPrefNet.R1I4.relayIpc.relayAndMux.p3.outQ_M 	rmtqueue-drop:last 	-nan
attr source  count(RMTQueue_Drop)
attr title  "dropped PDUs, last"
scalar randPrefNet.R1I4.relayIpc.relayAndMux.p3.inQ_0 	rmtqueue-drop:last 	-nan
attr source  count(RMTQueue_Drop)
attr title  "dropped PDUs, last"
scalar randPrefNet.R1I4.relayIpc.relayAndMux.p3.outQ_0 	rmtqueue-drop:last 	-nan
attr source  count(RMTQueue_Drop)
attr title  "dropped PDUs, last"
scalar randPrefNet.R1I4.relayIpc.relayAndMux.p4.port 	rmtport-down:last 	9
attr source  count(RMTPort_PassDown)
attr title  "msg passed down, last"
scalar randPrefNet.R1I4.relayIpc.relayAndMux.p4.port 	rmtport-up:last 	9
attr ""  ""
attr source  count(RMTPort_PassUp)
attr title  "msg passed up, last"
scalar randPrefNet.R1I4.relayIpc.relayAndMux.p4.inQ_M 	rmtqueue-drop:last 	-nan
attr source  count(RMTQueue_Drop)
attr title  "dropped PDUs, last"
scalar randPrefNet.R1I4.relayIpc.relayAndMux.p4.outQ_M 	rmtqueue-drop:last 	-nan
attr source  count(RMTQueue_Drop)
attr title  "dropped PDUs, last"
scalar randPrefNet.R1I4.relayIpc.relayAndMux.p4.inQ_0 	rmtqueue-drop:last 	-nan
attr source  count(RMTQueue_Drop)
attr title  "dropped PDUs, last"
scalar randPrefNet.R1I4.relayIpc.relayAndMux.p4.outQ_0 	rmtqueue-drop:last 	-nan
attr source  count(RMTQueue_Drop)
attr title  "dropped PDUs, last"
scalar randPrefNet.R1I5.ipcProcess[0].relayAndMux.p0.port 	rmtport-down:last 	19
attr source  count(RMTPort_PassDown)
attr title  "msg passed down, last"
scalar randPrefNet.R1I5.ipcProcess[0].relayAndMux.p0.port 	rmtport-up:last 	19
attr ""  ""
attr source  count(RMTPort_PassUp)
attr title  "msg passed up, last"
scalar randPrefNet.R1I5.ipcProcess[0].relayAndMux.p0.inQ_M 	rmtqueue-drop:last 	-nan
attr source  count(RMTQueue_Drop)
attr title  "dropped PDUs, last"
scalar randPrefNet.R1I5.ipcProcess[0].relayAndMux.p0.outQ_M 	rmtqueue-drop:last 	-nan
attr source  count(RMTQueue_Drop)
attr title  "dropped PDUs, last"
scalar randPrefNet.R1I5.ipcProcess[0].relayAndMux.p0.inQ_0 	rmtqueue-drop:last 	-nan
attr source  count(RMTQueue_Drop)
attr title  "dropped PDUs, last"
scalar randPrefNet.R1I5.ipcProcess[0].relayAndMux.p0.outQ_0 	rmtqueue-drop:last 	-nan
attr source  count(RMTQueue_Drop)
attr title  "dropped PDUs, last"
scalar randPrefNet.R1I5.ipcProcess[1].relayAndMux.p0.port 	rmtport-down:last 	19
attr source  count(RMTPort_PassDown)
attr title  "msg passed down, last"
scalar randPrefNet.R1I5.ipcProcess[1].relayAndMux.p0.port 	rmtport-up:last 	19
attr ""  ""
attr source  count(RMTPort_PassUp)
attr title  "msg passed up, last"
scalar randPrefNet.R1I5.ipcProcess[1].relayAndMux.p0.inQ_M 	rmtqueue-drop:last 	-nan
attr source  count(RMTQueue_Drop)
attr title  "dropped PDUs, last"
scalar randPrefNet.R1I5.ipcProcess[1].relayAndMux.p0.outQ_M 	rmtqueue-drop:last 	-nan
attr source  count(RMTQueue_Drop)
attr title  "dropped PDUs, last"
scalar randPrefNet.R1I5.ipcProcess[1].relayAndMux.p0.inQ_0 	rmtqueue-drop:last 	-nan
attr source  count(RMTQueue_Drop)
attr title  "dropped PDUs, last"
scalar randPrefNet.R1I5.ipcProcess[1].relayAndMux.p0.outQ_0 	rmtqueue-drop:last 	-nan
attr source  count(RMTQueue_Drop)
attr title  "dropped PDUs, last"
scalar randPrefNet.R1I5.ipcProcess[2].relayAndMux.p0.port 	rmtport-down:last 	19
attr source  count(RMTPort_PassDown)
attr title  "msg passed down, last"
scalar randPrefNet.R1I5.ipcProcess[2].relayAndMux.p0.port 	rmtport-up:last 	19
attr ""  ""
attr source  count(RMTPort_PassUp)
attr title  "msg passed up, last"
scalar randPrefNet.R1I5.ipcProcess[2].relayAndMux.p0.inQ_M 	rmtqueue-drop:last 	-nan
attr source  count(RMTQueue_Drop)
attr title  "dropped PDUs, last"
scalar randPrefNet.R1I5.ipcProcess[2].relayAndMux.p0.outQ_M 	rmtqueue-drop:last 	-nan
attr source  count(RMTQueue_Drop)
attr title  "dropped PDUs, last"
scalar randPrefNet.R1I5.ipcProcess[2].relayAndMux.p0.inQ_0 	rmtqueue-drop:last 	-nan
attr source  count(RMTQueue_Drop)
attr title  "dropped PDUs, last"
scalar randPrefNet.R1I5.ipcProcess[2].relayAndMux.p0.outQ_0 	rmtqueue-drop:last 	-nan
attr source  count(RMTQueue_Drop)
attr title  "dropped PDUs, last"
scalar randPrefNet.R1I5.ipcProcess[3].relayAndMux.p0.port 	rmtport-down:last 	19
attr source  count(RMTPort_PassDown)
attr title  "msg passed down, last"
scalar randPrefNet.R1I5.ipcProcess[3].relayAndMux.p0.port 	rmtport-up:last 	19
attr ""  ""
attr source  count(RMTPort_PassUp)
attr title  "msg passed up, last"
scalar randPrefNet.R1I5.ipcProcess[3].relayAndMux.p0.inQ_M 	rmtqueue-drop:last 	-nan
attr source  count(RMTQueue_Drop)
attr title  "dropped PDUs, last"
scalar randPrefNet.R1I5.ipcProcess[3].relayAndMux.p0.outQ_M 	rmtqueue-drop:last 	-nan
attr source  count(RMTQueue_Drop)
attr title  "dropped PDUs, last"
scalar randPrefNet.R1I5.ipcProcess[3].relayAndMux.p0.inQ_0 	rmtqueue-drop:last 	-nan
attr source  count(RMTQueue_Drop)
attr title  "dropped PDUs, last"
scalar randPrefNet.R1I5.ipcProcess[3].relayAndMux.p0.outQ_0 	rmtqueue-drop:last 	-nan
attr source  count(RMTQueue_Drop)
attr title  "dropped PDUs, last"
scalar randPrefNet.R1I5.ipcProcess[4].relayAndMux.p0.port 	rmtport-down:last 	19
attr source  count(RMTPort_PassDown)
attr title  "msg passed down, last"
scalar randPrefNet.R1I5.ipcProcess[4].relayAndMux.p0.port 	rmtport-up:last 	19
attr ""  ""
attr source  count(RMTPort_PassUp)
attr title  "msg passed up, last"
scalar randPrefNet.R1I5.ipcProcess[4].relayAndMux.p0.inQ_M 	rmtqueue-drop:last 	-nan
attr source  count(RMTQueue_Drop)
attr title  "dropped PDUs, last"
scalar randPrefNet.R1I5.ipcProcess[4].relayAndMux.p0.outQ_M 	rmtqueue-drop:last 	-nan
attr source  count(RMTQueue_Drop)
attr title  "dropped PDUs, last"
scalar randPrefNet.R1I5.ipcProcess[4].relayAndMux.p0.inQ_0 	rmtqueue-drop:last 	-nan
attr source  count(RMTQueue_Drop)
attr title  "dropped PDUs, last"
scalar randPrefNet.R1I5.ipcProcess[4].relayAndMux.p0.outQ_0 	rmtqueue-drop:last 	-nan
attr source  count(RMTQueue_Drop)
attr title  "dropped PDUs, last"
scalar randPrefNet.R1I5.ipcProcess[5].relayAndMux.p0.port 	rmtport-down:last 	19
attr source  count(RMTPort_PassDown)
attr title  "msg passed down, last"
scalar randPrefNet.R1I5.ipcProcess[5].relayAndMux.p0.port 	rmtport-up:last 	19
attr ""  ""
attr source  count(RMTPort_PassUp)
attr title  "msg passed up, last"
scalar randPrefNet.R1I5.ipcProcess[5].relayAndMux.p0.inQ_M 	rmtqueue-drop:last 	-nan
attr source  count(RMTQueue_Drop)
attr title  "dropped PDUs, last"
scalar randPrefNet.R1I5.ipcProcess[5].relayAndMux.p0.outQ_M 	rmtqueue-drop:last 	-nan
attr source  count(RMTQueue_Drop)
attr title  "dropped PDUs, last"
scalar randPrefNet.R1I5.ipcProcess[5].relayAndMux.p0.inQ_0 	rmtqueue-drop:last 	-nan
attr source  count(RMTQueue_Drop)
attr title  "dropped PDUs, last"
scalar randPrefNet.R1I5.ipcProcess[5].relayAndMux.p0.outQ_0 	rmtqueue-drop:last 	-nan
attr source  count(RMTQueue_Drop)
attr title  "dropped PDUs, last"
scalar randPrefNet.R1I5.relayIpc.relayAndMux.p0.port 	rmtport-down:last 	9
attr source  count(RMTPort_PassDown)
attr title  "msg passed down, last"
scalar randPrefNet.R1I5.relayIpc.relayAndMux.p0.port 	rmtport-up:last 	9
attr ""  ""
attr source  count(RMTPort_PassUp)
attr title  "msg passed up, last"
scalar randPrefNet.R1I5.relayIpc.relayAndMux.p0.inQ_M 	rmtqueue-drop:last 	-nan
attr source  count(RMTQueue_Drop)
attr title  "dropped PDUs, last"
scalar randPrefNet.R1I5.relayIpc.relayAndMux.p0.outQ_M 	rmtqueue-drop:last 	-nan
attr source  count(RMTQueue_Drop)
attr title  "dropped PDUs, last"
scalar randPrefNet.R1I5.relayIpc.relayAndMux.p0.inQ_0 	rmtqueue-drop:last 	-nan
attr source  count(RMTQueue_Drop)
attr title  "dropped PDUs, last"
scalar randPrefNet.R1I5.relayIpc.relayAndMux.p0.outQ_0 	rmtqueue-drop:last 	-nan
attr source  count(RMTQueue_Drop)
attr title  "dropped PDUs, last"
scalar randPrefNet.R1I5.relayIpc.relayAndMux.p1.port 	rmtport-down:last 	9
attr source  count(RMTPort_PassDown)
attr title  "msg passed down, last"
scalar randPrefNet.R1I5.relayIpc.relayAndMux.p1.port 	rmtport-up:last 	9
attr ""  ""
attr source  count(RMTPort_PassUp)
attr title  "msg passed up, last"
scalar randPrefNet.R1I5.relayIpc.relayAndMux.p1.inQ_M 	rmtqueue-drop:last 	-nan
attr source  count(RMTQueue_Drop)
attr title  "dropped PDUs, last"
scalar randPrefNet.R1I5.relayIpc.relayAndMux.p1.outQ_M 	rmtqueue-drop:last 	-nan
attr source  count(RMTQueue_Drop)
attr title  "dropped PDUs, last"
scalar randPrefNet.R1I5.relayIpc.relayAndMux.p1.inQ_0 	rmtqueue-drop:last 	-nan
attr source  count(RMTQueue_Drop)
attr title  "dropped PDUs, last"
scalar randPrefNet.R1I5.relayIpc.relayAndMux.p1.outQ_0 	rmtqueue-drop:last 	-nan
attr source  count(RMTQueue_Drop)
attr title  "dropped PDUs, last"
scalar randPrefNet.R1I5.relayIpc.relayAndMux.p2.port 	rmtport-down:last 	9
attr source  count(RMTPort_PassDown)
attr title  "msg passed down, last"
scalar randPrefNet.R1I5.relayIpc.relayAndMux.p2.port 	rmtport-up:last 	9
attr ""  ""
attr source  count(RMTPort_PassUp)
attr title  "msg passed up, last"
scalar randPrefNet.R1I5.relayIpc.relayAndMux.p2.inQ_M 	rmtqueue-drop:last 	-nan
attr source  count(RMTQueue_Drop)
attr title  "dropped PDUs, last"
scalar randPrefNet.R1I5.relayIpc.relayAndMux.p2.outQ_M 	rmtqueue-drop:last 	-nan
attr source  count(RMTQueue_Drop)
attr title  "dropped PDUs, last"
scalar randPrefNet.R1I5.relayIpc.relayAndMux.p2.inQ_0 	rmtqueue-drop:last 	-nan
attr source  count(RMTQueue_Drop)
attr title  "dropped PDUs, last"
scalar randPrefNet.R1I5.relayIpc.relayAndMux.p2.outQ_0 	rmtqueue-drop:last 	-nan
attr source  count(RMTQueue_Drop)
attr title  "dropped PDUs, last"
scalar randPrefNet.R1I5.relayIpc.relayAndMux.p3.port 	rmtport-down:last 	9
attr source  count(RMTPort_PassDown)
attr title  "msg passed down, last"
scalar randPrefNet.R1I5.relayIpc.relayAndMux.p3.port 	rmtport-up:last 	9
attr ""  ""
attr source  count(RMTPort_PassUp)
attr title  "msg passed up, last"
scalar randPrefNet.R1I5.relayIpc.relayAndMux.p3.inQ_M 	rmtqueue-drop:last 	-nan
attr source  count(RMTQueue_Drop)
attr title  "dropped PDUs, last"
scalar randPrefNet.R1I5.relayIpc.relayAndMux.p3.outQ_M 	rmtqueue-drop:last 	-nan
attr source  count(RMTQueue_Drop)
attr title  "dropped PDUs, last"
scalar randPrefNet.R1I5.relayIpc.relayAndMux.p3.inQ_0 	rmtqueue-drop:last 	-nan
attr source  count(RMTQueue_Drop)
attr title  "dropped PDUs, last"
scalar randPrefNet.R1I5.relayIpc.relayAndMux.p3.outQ_0 	rmtqueue-drop:last 	-nan
attr source  count(RMTQueue_Drop)
attr title  "dropped PDUs, last"
scalar randPrefNet.R1I5.relayIpc.relayAndMux.p4.port 	rmtport-down:last 	9
attr source  count(RMTPort_PassDown)
attr title  "msg passed down, last"
scalar randPrefNet.R1I5.relayIpc.relayAndMux.p4.port 	rmtport-up:last 	9
attr ""  ""
attr source  count(RMTPort_PassUp)
attr title  "msg passed up, last"
scalar randPrefNet.R1I5.relayIpc.relayAndMux.p4.inQ_M 	rmtqueue-drop:last 	-nan
attr source  count(RMTQueue_Drop)
attr title  "dropped PDUs, last"
scalar randPrefNet.R1I5.relayIpc.relayAndMux.p4.outQ_M 	rmtqueue-drop:last 	-nan
attr source  count(RMTQueue_Drop)
attr title  "dropped PDUs, last"
scalar randPrefNet.R1I5.relayIpc.relayAndMux.p4.inQ_0 	rmtqueue-drop:last 	-nan
attr source  count(RMTQueue_Drop)
attr title  "dropped PDUs, last"
scalar randPrefNet.R1I5.relayIpc.relayAndMux.p4.outQ_0 	rmtqueue-drop:last 	-nan
attr source  count(RMTQueue_Drop)
attr title  "dropped PDUs, last"
scalar randPrefNet.R1I5.relayIpc.relayAndMux.p5.port 	rmtport-down:last 	9
attr source  count(RMTPort_PassDown)
attr title  "msg passed down, last"
scalar randPrefNet.R1I5.relayIpc.relayAndMux.p5.port 	rmtport-up:last 	9
attr ""  ""
attr source  count(RMTPort_PassUp)
attr title  "msg passed up, last"
scalar randPrefNet.R1I5.relayIpc.relayAndMux.p5.inQ_M 	rmtqueue-drop:last 	-nan
attr source  count(RMTQueue_Drop)
attr title  "dropped PDUs, last"
scalar randPrefNet.R1I5.relayIpc.relayAndMux.p5.outQ_M 	rmtqueue-drop:last 	-nan
attr source  count(RMTQueue_Drop)
attr title  "dropped PDUs, last"
scalar randPrefNet.R1I5.relayIpc.relayAndMux.p5.inQ_0 	rmtqueue-drop:last 	-nan
attr source  count(RMTQueue_Drop)
attr title  "dropped PDUs, last"
scalar randPrefNet.R1I5.relayIpc.relayAndMux.p5.outQ_0 	rmtqueue-drop:last 	-nan
attr source  count(RMTQueue_Drop)
attr title  "dropped PDUs, last"
scalar randPrefNet.R1I6.ipcProcess[0].relayAndMux.p0.port 	rmtport-down:last 	19
attr source  count(RMTPort_PassDown)
attr title  "msg passed down, last"
scalar randPrefNet.R1I6.ipcProcess[0].relayAndMux.p0.port 	rmtport-up:last 	19
attr ""  ""
attr source  count(RMTPort_PassUp)
attr title  "msg passed up, last"
scalar randPrefNet.R1I6.ipcProcess[0].relayAndMux.p0.inQ_M 	rmtqueue-drop:last 	-nan
attr source  count(RMTQueue_Drop)
attr title  "dropped PDUs, last"
scalar randPrefNet.R1I6.ipcProcess[0].relayAndMux.p0.outQ_M 	rmtqueue-drop:last 	-nan
attr source  count(RMTQueue_Drop)
attr title  "dropped PDUs, last"
scalar randPrefNet.R1I6.ipcProcess[0].relayAndMux.p0.inQ_0 	rmtqueue-drop:last 	-nan
attr source  count(RMTQueue_Drop)
attr title  "dropped PDUs, last"
scalar randPrefNet.R1I6.ipcProcess[0].relayAndMux.p0.outQ_0 	rmtqueue-drop:last 	-nan
attr source  count(RMTQueue_Drop)
attr title  "dropped PDUs, last"
scalar randPrefNet.R1I6.ipcProcess[1].relayAndMux.p0.port 	rmtport-down:last 	19
attr source  count(RMTPort_PassDown)
attr title  "msg passed down, last"
scalar randPrefNet.R1I6.ipcProcess[1].relayAndMux.p0.port 	rmtport-up:last 	19
attr ""  ""
attr source  count(RMTPort_PassUp)
attr title  "msg passed up, last"
scalar randPrefNet.R1I6.ipcProcess[1].relayAndMux.p0.inQ_M 	rmtqueue-drop:last 	-nan
attr source  count(RMTQueue_Drop)
attr title  "dropped PDUs, last"
scalar randPrefNet.R1I6.ipcProcess[1].relayAndMux.p0.outQ_M 	rmtqueue-drop:last 	-nan
attr source  count(RMTQueue_Drop)
attr title  "dropped PDUs, last"
scalar randPrefNet.R1I6.ipcProcess[1].relayAndMux.p0.inQ_0 	rmtqueue-drop:last 	-nan
attr source  count(RMTQueue_Drop)
attr title  "dropped PDUs, last"
scalar randPrefNet.R1I6.ipcProcess[1].relayAndMux.p0.outQ_0 	rmtqueue-drop:last 	-nan
attr source  count(RMTQueue_Drop)
attr title  "dropped PDUs, last"
scalar randPrefNet.R1I6.ipcProcess[2].relayAndMux.p0.port 	rmtport-down:last 	19
attr source  count(RMTPort_PassDown)
attr title  "msg passed down, last"
scalar randPrefNet.R1I6.ipcProcess[2].relayAndMux.p0.port 	rmtport-up:last 	19
attr ""  ""
attr source  count(RMTPort_PassUp)
attr title  "msg passed up, last"
scalar randPrefNet.R1I6.ipcProcess[2].relayAndMux.p0.inQ_M 	rmtqueue-drop:last 	-nan
attr source  count(RMTQueue_Drop)
attr title  "dropped PDUs, last"
scalar randPrefNet.R1I6.ipcProcess[2].relayAndMux.p0.outQ_M 	rmtqueue-drop:last 	-nan
attr source  count(RMTQueue_Drop)
attr title  "dropped PDUs, last"
scalar randPrefNet.R1I6.ipcProcess[2].relayAndMux.p0.inQ_0 	rmtqueue-drop:last 	-nan
attr source  count(RMTQueue_Drop)
attr title  "dropped PDUs, last"
scalar randPrefNet.R1I6.ipcProcess[2].relayAndMux.p0.outQ_0 	rmtqueue-drop:last 	-nan
attr source  count(RMTQueue_Drop)
attr title  "dropped PDUs, last"
scalar randPrefNet.R1I6.ipcProcess[3].relayAndMux.p0.port 	rmtport-down:last 	19
attr source  count(RMTPort_PassDown)
attr title  "msg passed down, last"
scalar randPrefNet.R1I6.ipcProcess[3].relayAndMux.p0.port 	rmtport-up:last 	19
attr ""  ""
attr source  count(RMTPort_PassUp)
attr title  "msg passed up, last"
scalar randPrefNet.R1I6.ipcProcess[3].relayAndMux.p0.inQ_M 	rmtqueue-drop:last 	-nan
attr source  count(RMTQueue_Drop)
attr title  "dropped PDUs, last"
scalar randPrefNet.R1I6.ipcProcess[3].relayAndMux.p0.outQ_M 	rmtqueue-drop:last 	-nan
attr source  count(RMTQueue_Drop)
attr title  "dropped PDUs, last"
scalar randPrefNet.R1I6.ipcProcess[3].relayAndMux.p0.inQ_0 	rmtqueue-drop:last 	-nan
attr source  count(RMTQueue_Drop)
attr title  "dropped PDUs, last"
scalar randPrefNet.R1I6.ipcProcess[3].relayAndMux.p0.outQ_0 	rmtqueue-drop:last 	-nan
attr source  count(RMTQueue_Drop)
attr title  "dropped PDUs, last"
scalar randPrefNet.R1I6.relayIpc.relayAndMux.p0.port 	rmtport-down:last 	9
attr source  count(RMTPort_PassDown)
attr title  "msg passed down, last"
scalar randPrefNet.R1I6.relayIpc.relayAndMux.p0.port 	rmtport-up:last 	9
attr ""  ""
attr source  count(RMTPort_PassUp)
attr title  "msg passed up, last"
scalar randPrefNet.R1I6.relayIpc.relayAndMux.p0.inQ_M 	rmtqueue-drop:last 	-nan
attr source  count(RMTQueue_Drop)
attr title  "dropped PDUs, last"
scalar randPrefNet.R1I6.relayIpc.relayAndMux.p0.outQ_M 	rmtqueue-drop:last 	-nan
attr source  count(RMTQueue_Drop)
attr title  "dropped PDUs, last"
scalar randPrefNet.R1I6.relayIpc.relayAndMux.p0.inQ_0 	rmtqueue-drop:last 	-nan
attr source  count(RMTQueue_Drop)
attr title  "dropped PDUs, last"
scalar randPrefNet.R1I6.relayIpc.relayAndMux.p0.outQ_0 	rmtqueue-drop:last 	-nan
attr source  count(RMTQueue_Drop)
attr title  "dropped PDUs, last"
scalar randPrefNet.R1I6.relayIpc.relayAndMux.p1.port 	rmtport-down:last 	9
attr source  count(RMTPort_PassDown)
attr title  "msg passed down, last"
scalar randPrefNet.R1I6.relayIpc.relayAndMux.p1.port 	rmtport-up:last 	9
attr ""  ""
attr source  count(RMTPort_PassUp)
attr title  "msg passed up, last"
scalar randPrefNet.R1I6.relayIpc.relayAndMux.p1.inQ_M 	rmtqueue-drop:last 	-nan
attr source  count(RMTQueue_Drop)
attr title  "dropped PDUs, last"
scalar randPrefNet.R1I6.relayIpc.relayAndMux.p1.outQ_M 	rmtqueue-drop:last 	-nan
attr source  count(RMTQueue_Drop)
attr title  "dropped PDUs, last"
scalar randPrefNet.R1I6.relayIpc.relayAndMux.p1.inQ_0 	rmtqueue-drop:last 	-nan
attr source  count(RMTQueue_Drop)
attr title  "dropped PDUs, last"
scalar randPrefNet.R1I6.relayIpc.relayAndMux.p1.outQ_0 	rmtqueue-drop:last 	-nan
attr source  count(RMTQueue_Drop)
attr title  "dropped PDUs, last"
scalar randPrefNet.R1I6.relayIpc.relayAndMux.p2.port 	rmtport-down:last 	9
attr source  count(RMTPort_PassDown)
attr title  "msg passed down, last"
scalar randPrefNet.R1I6.relayIpc.relayAndMux.p2.port 	rmtport-up:last 	9
attr ""  ""
attr source  count(RMTPort_PassUp)
attr title  "msg passed up, last"
scalar randPrefNet.R1I6.relayIpc.relayAndMux.p2.inQ_M 	rmtqueue-drop:last 	-nan
attr source  count(RMTQueue_Drop)
attr title  "dropped PDUs, last"
scalar randPrefNet.R1I6.relayIpc.relayAndMux.p2.outQ_M 	rmtqueue-drop:last 	-nan
attr source  count(RMTQueue_Drop)
attr title  "dropped PDUs, last"
scalar randPrefNet.R1I6.relayIpc.relayAndMux.p2.inQ_0 	rmtqueue-drop:last 	-nan
attr source  count(RMTQueue_Drop)
attr title  "dropped PDUs, last"
scalar randPrefNet.R1I6.relayIpc.relayAndMux.p2.outQ_0 	rmtqueue-drop:last 	-nan
attr source  count(RMTQueue_Drop)
attr title  "dropped PDUs, last"
scalar randPrefNet.R1I6.relayIpc.relayAndMux.p3.port 	rmtport-down:last 	9
attr source  count(RMTPort_PassDown)
attr title  "msg passed down, last"
scalar randPrefNet.R1I6.relayIpc.relayAndMux.p3.port 	rmtport-up:last 	9
attr ""  ""
attr source  count(RMTPort_PassUp)
attr title  "msg passed up, last"
scalar randPrefNet.R1I6.relayIpc.relayAndMux.p3.inQ_M 	rmtqueue-drop:last 	-nan
attr source  count(RMTQueue_Drop)
attr title  "dropped PDUs, last"
scalar randPrefNet.R1I6.relayIpc.relayAndMux.p3.outQ_M 	rmtqueue-drop:last 	-nan
attr source  count(RMTQueue_Drop)
attr title  "dropped PDUs, last"
scalar randPrefNet.R1I6.relayIpc.relayAndMux.p3.inQ_0 	rmtqueue-drop:last 	-nan
attr source  count(RMTQueue_Drop)
attr title  "dropped PDUs, last"
scalar randPrefNet.R1I6.relayIpc.relayAndMux.p3.outQ_0 	rmtqueue-drop:last 	-nan
attr source  count(RMTQueue_Drop)
attr title  "dropped PDUs, last"
scalar randPrefNet.R1I7.ipcProcess[0].relayAndMux.p0.port 	rmtport-down:last 	19
attr source  count(RMTPort_PassDown)
attr title  "msg passed down, last"
scalar randPrefNet.R1I7.ipcProcess[0].relayAndMux.p0.port 	rmtport-up:last 	19
attr ""  ""
attr source  count(RMTPort_PassUp)
attr title  "msg passed up, last"
scalar randPrefNet.R1I7.ipcProcess[0].relayAndMux.p0.inQ_M 	rmtqueue-drop:last 	-nan
attr source  count(RMTQueue_Drop)
attr title  "dropped PDUs, last"
scalar randPrefNet.R1I7.ipcProcess[0].relayAndMux.p0.outQ_M 	rmtqueue-drop:last 	-nan
attr source  count(RMTQueue_Drop)
attr title  "dropped PDUs, last"
scalar randPrefNet.R1I7.ipcProcess[0].relayAndMux.p0.inQ_0 	rmtqueue-drop:last 	-nan
attr source  count(RMTQueue_Drop)
attr title  "dropped PDUs, last"
scalar randPrefNet.R1I7.ipcProcess[0].relayAndMux.p0.outQ_0 	rmtqueue-drop:last 	-nan
attr source  count(RMTQueue_Drop)
attr title  "dropped PDUs, last"
scalar randPrefNet.R1I7.ipcProcess[1].relayAndMux.p0.port 	rmtport-down:last 	19
attr source  count(RMTPort_PassDown)
attr title  "msg passed down, last"
scalar randPrefNet.R1I7.ipcProcess[1].relayAndMux.p0.port 	rmtport-up:last 	19
attr ""  ""
attr source  count(RMTPort_PassUp)
attr title  "msg passed up, last"
scalar randPrefNet.R1I7.ipcProcess[1].relayAndMux.p0.inQ_M 	rmtqueue-drop:last 	-nan
attr source  count(RMTQueue_Drop)
attr title  "dropped PDUs, last"
scalar randPrefNet.R1I7.ipcProcess[1].relayAndMux.p0.outQ_M 	rmtqueue-drop:last 	-nan
attr source  count(RMTQueue_Drop)
attr title  "dropped PDUs, last"
scalar randPrefNet.R1I7.ipcProcess[1].relayAndMux.p0.inQ_0 	rmtqueue-drop:last 	-nan
attr source  count(RMTQueue_Drop)
attr title  "dropped PDUs, last"
scalar randPrefNet.R1I7.ipcProcess[1].relayAndMux.p0.outQ_0 	rmtqueue-drop:last 	-nan
attr source  count(RMTQueue_Drop)
attr title  "dropped PDUs, last"
scalar randPrefNet.R1I7.ipcProcess[2].relayAndMux.p0.port 	rmtport-down:last 	19
attr source  count(RMTPort_PassDown)
attr title  "msg passed down, last"
scalar randPrefNet.R1I7.ipcProcess[2].relayAndMux.p0.port 	rmtport-up:last 	19
attr ""  ""
attr source  count(RMTPort_PassUp)
attr title  "msg passed up, last"
scalar randPrefNet.R1I7.ipcProcess[2].relayAndMux.p0.inQ_M 	rmtqueue-drop:last 	-nan
attr source  count(RMTQueue_Drop)
attr title  "dropped PDUs, last"
scalar randPrefNet.R1I7.ipcProcess[2].relayAndMux.p0.outQ_M 	rmtqueue-drop:last 	-nan
attr source  count(RMTQueue_Drop)
attr title  "dropped PDUs, last"
scalar randPrefNet.R1I7.ipcProcess[2].relayAndMux.p0.inQ_0 	rmtqueue-drop:last 	-nan
attr source  count(RMTQueue_Drop)
attr title  "dropped PDUs, last"
scalar randPrefNet.R1I7.ipcProcess[2].relayAndMux.p0.outQ_0 	rmtqueue-drop:last 	-nan
attr source  count(RMTQueue_Drop)
attr title  "dropped PDUs, last"
scalar randPrefNet.R1I7.ipcProcess[3].relayAndMux.p0.port 	rmtport-down:last 	19
attr source  count(RMTPort_PassDown)
attr title  "msg passed down, last"
scalar randPrefNet.R1I7.ipcProcess[3].relayAndMux.p0.port 	rmtport-up:last 	19
attr ""  ""
attr source  count(RMTPort_PassUp)
attr title  "msg passed up, last"
scalar randPrefNet.R1I7.ipcProcess[3].relayAndMux.p0.inQ_M 	rmtqueue-drop:last 	-nan
attr source  count(RMTQueue_Drop)
attr title  "dropped PDUs, last"
scalar randPrefNet.R1I7.ipcProcess[3].relayAndMux.p0.outQ_M 	rmtqueue-drop:last 	-nan
attr source  count(RMTQueue_Drop)
attr title  "dropped PDUs, last"
scalar randPrefNet.R1I7.ipcProcess[3].relayAndMux.p0.inQ_0 	rmtqueue-drop:last 	-nan
attr source  count(RMTQueue_Drop)
attr title  "dropped PDUs, last"
scalar randPrefNet.R1I7.ipcProcess[3].relayAndMux.p0.outQ_0 	rmtqueue-drop:last 	-nan
attr source  count(RMTQueue_Drop)
attr title  "dropped PDUs, last"
scalar randPrefNet.R1I7.ipcProcess[4].relayAndMux.p0.port 	rmtport-down:last 	19
attr source  count(RMTPort_PassDown)
attr title  "msg passed down, last"
scalar randPrefNet.R1I7.ipcProcess[4].relayAndMux.p0.port 	rmtport-up:last 	19
attr ""  ""
attr source  count(RMTPort_PassUp)
attr title  "msg passed up, last"
scalar randPrefNet.R1I7.ipcProcess[4].relayAndMux.p0.inQ_M 	rmtqueue-drop:last 	-nan
attr source  count(RMTQueue_Drop)
attr title  "dropped PDUs, last"
scalar randPrefNet.R1I7.ipcProcess[4].relayAndMux.p0.outQ_M 	rmtqueue-drop:last 	-nan
attr source  count(RMTQueue_Drop)
attr title  "dropped PDUs, last"
scalar randPrefNet.R1I7.ipcProcess[4].relayAndMux.p0.inQ_0 	rmtqueue-drop:last 	-nan
attr source  count(RMTQueue_Drop)
attr title  "dropped PDUs, last"
scalar randPrefNet.R1I7.ipcProcess[4].relayAndMux.p0.outQ_0 	rmtqueue-drop:last 	-nan
attr source  count(RMTQueue_Drop)
attr title  "dropped PDUs, last"
scalar randPrefNet.R1I7.ipcProcess[5].relayAndMux.p0.port 	rmtport-down:last 	19
attr source  count(RMTPort_PassDown)
attr title  "msg passed down, last"
scalar randPrefNet.R1I7.ipcProcess[5].relayAndMux.p0.port 	rmtport-up:last 	19
attr ""  ""
attr source  count(RMTPort_PassUp)
attr title  "msg passed up, last"
scalar randPrefNet.R1I7.ipcProcess[5].relayAndMux.p0.inQ_M 	rmtqueue-drop:last 	-nan
attr source  count(RMTQueue_Drop)
attr title  "dropped PDUs, last"
scalar randPrefNet.R1I7.ipcProcess[5].relayAndMux.p0.outQ_M 	rmtqueue-drop:last 	-nan
attr source  count(RMTQueue_Drop)
attr title  "dropped PDUs, last"
scalar randPrefNet.R1I7.ipcProcess[5].relayAndMux.p0.inQ_0 	rmtqueue-drop:last 	-nan
attr source  count(RMTQueue_Drop)
attr title  "dropped PDUs, last"
scalar randPrefNet.R1I7.ipcProcess[5].relayAndMux.p0.outQ_0 	rmtqueue-drop:last 	-nan
attr source  count(RMTQueue_Drop)
attr title  "dropped PDUs, last"
scalar randPrefNet.R1I7.ipcProcess[6].relayAndMux.p0.port 	rmtport-down:last 	19
attr source  count(RMTPort_PassDown)
attr title  "msg passed down, last"
scalar randPrefNet.R1I7.ipcProcess[6].relayAndMux.p0.port 	rmtport-up:last 	19
attr ""  ""
attr source  count(RMTPort_PassUp)
attr title  "msg passed up, last"
scalar randPrefNet.R1I7.ipcProcess[6].relayAndMux.p0.inQ_M 	rmtqueue-drop:last 	-nan
attr source  count(RMTQueue_Drop)
attr title  "dropped PDUs, last"
scalar randPrefNet.R1I7.ipcProcess[6].relayAndMux.p0.outQ_M 	rmtqueue-drop:last 	-nan
attr source  count(RMTQueue_Drop)
attr title  "dropped PDUs, last"
scalar randPrefNet.R1I7.ipcProcess[6].relayAndMux.p0.inQ_0 	rmtqueue-drop:last 	-nan
attr source  count(RMTQueue_Drop)
attr title  "dropped PDUs, last"
scalar randPrefNet.R1I7.ipcProcess[6].relayAndMux.p0.outQ_0 	rmtqueue-drop:last 	-nan
attr source  count(RMTQueue_Drop)
attr title  "dropped PDUs, last"
scalar randPrefNet.R1I7.relayIpc.relayAndMux.p0.port 	rmtport-down:last 	9
attr source  count(RMTPort_PassDown)
attr title  "msg passed down, last"
scalar randPrefNet.R1I7.relayIpc.relayAndMux.p0.port 	rmtport-up:last 	9
attr ""  ""
attr source  count(RMTPort_PassUp)
attr title  "msg passed up, last"
scalar randPrefNet.R1I7.relayIpc.relayAndMux.p0.inQ_M 	rmtqueue-drop:last 	-nan
attr source  count(RMTQueue_Drop)
attr title  "dropped PDUs, last"
scalar randPrefNet.R1I7.relayIpc.relayAndMux.p0.outQ_M 	rmtqueue-drop:last 	-nan
attr source  count(RMTQueue_Drop)
attr title  "dropped PDUs, last"
scalar randPrefNet.R1I7.relayIpc.relayAndMux.p0.inQ_0 	rmtqueue-drop:last 	-nan
attr source  count(RMTQueue_Drop)
attr title  "dropped PDUs, last"
scalar randPrefNet.R1I7.relayIpc.relayAndMux.p0.outQ_0 	rmtqueue-drop:last 	-nan
attr source  count(RMTQueue_Drop)
attr title  "dropped PDUs, last"
scalar randPrefNet.R1I7.relayIpc.relayAndMux.p1.port 	rmtport-down:last 	9
attr source  count(RMTPort_PassDown)
attr title  "msg passed down, last"
scalar randPrefNet.R1I7.relayIpc.relayAndMux.p1.port 	rmtport-up:last 	9
attr ""  ""
attr source  count(RMTPort_PassUp)
attr title  "msg passed up, last"
scalar randPrefNet.R1I7.relayIpc.relayAndMux.p1.inQ_M 	rmtqueue-drop:last 	-nan
attr source  count(RMTQueue_Drop)
attr title  "dropped PDUs, last"
scalar randPrefNet.R1I7.relayIpc.relayAndMux.p1.outQ_M 	rmtqueue-drop:last 	-nan
attr source  count(RMTQueue_Drop)
attr title  "dropped PDUs, last"
scalar randPrefNet.R1I7.relayIpc.relayAndMux.p1.inQ_0 	rmtqueue-drop:last 	-nan
attr source  count(RMTQueue_Drop)
attr title  "dropped PDUs, last"
scalar randPrefNet.R1I7.relayIpc.relayAndMux.p1.outQ_0 	rmtqueue-drop:last 	-nan
attr source  count(RMTQueue_Drop)
attr title  "dropped PDUs, last"
scalar randPrefNet.R1I7.relayIpc.relayAndMux.p2.port 	rmtport-down:last 	9
attr source  count(RMTPort_PassDown)
attr title  "msg passed down, last"
scalar randPrefNet.R1I7.relayIpc.relayAndMux.p2.port 	rmtport-up:last 	9
attr ""  ""
attr source  count(RMTPort_PassUp)
attr title  "msg passed up, last"
scalar randPrefNet.R1I7.relayIpc.relayAndMux.p2.inQ_M 	rmtqueue-drop:last 	-nan
attr source  count(RMTQueue_Drop)
attr title  "dropped PDUs, last"
scalar randPrefNet.R1I7.relayIpc.relayAndMux.p2.outQ_M 	rmtqueue-drop:last 	-nan
attr source  count(RMTQueue_Drop)
attr title  "dropped PDUs, last"
scalar randPrefNet.R1I7.relayIpc.relayAndMux.p2.inQ_0 	rmtqueue-drop:last 	-nan
attr source  count(RMTQueue_Drop)
attr title  "dropped PDUs, last"
scalar randPrefNet.R1I7.relayIpc.relayAndMux.p2.outQ_0 	rmtqueue-drop:last 	-nan
attr source  count(RMTQueue_Drop)
attr title  "dropped PDUs, last"
scalar randPrefNet.R1I7.relayIpc.relayAndMux.p3.port 	rmtport-down:last 	9
attr source  count(RMTPort_PassDown)
attr title  "msg passed down, last"
scalar randPrefNet.R1I7.relayIpc.relayAndMux.p3.port 	rmtport-up:last 	9
attr ""  ""
attr source  count(RMTPort_PassUp)
attr title  "msg passed up, last"
scalar randPrefNet.R1I7.relayIpc.relayAndMux.p3.inQ_M 	rmtqueue-drop:last 	-nan
attr source  count(RMTQueue_Drop)
attr title  "dropped PDUs, last"
scalar randPrefNet.R1I7.relayIpc.relayAndMux.p3.outQ_M 	rmtqueue-drop:last 	-nan
attr source  count(RMTQueue_Drop)
attr title  "dropped PDUs, last"
scalar randPrefNet.R1I7.relayIpc.relayAndMux.p3.inQ_0 	rmtqueue-drop:last 	-nan
attr source  count(RMTQueue_Drop)
attr title  "dropped PDUs, last"
scalar randPrefNet.R1I7.relayIpc.relayAndMux.p3.outQ_0 	rmtqueue-drop:last 	-nan
attr source  count(RMTQueue_Drop)
attr title  "dropped PDUs, last"
scalar randPrefNet.R1I7.relayIpc.relayAndMux.p4.port 	rmtport-down:last 	9
attr source  count(RMTPort_PassDown)
attr title  "msg passed down, last"
scalar randPrefNet.R1I7.relayIpc.relayAndMux.p4.port 	rmtport-up:last 	9
attr ""  ""
attr source  count(RMTPort_PassUp)
attr title  "msg passed up, last"
scalar randPrefNet.R1I7.relayIpc.relayAndMux.p4.inQ_M 	rmtqueue-drop:last 	-nan
attr source  count(RMTQueue_Drop)
attr title  "dropped PDUs, last"
scalar randPrefNet.R1I7.relayIpc.relayAndMux.p4.outQ_M 	rmtqueue-drop:last 	-nan
attr source  count(RMTQueue_Drop)
attr title  "dropped PDUs, last"
scalar randPrefNet.R1I7.relayIpc.relayAndMux.p4.inQ_0 	rmtqueue-drop:last 	-nan
attr source  count(RMTQueue_Drop)
attr title  "dropped PDUs, last"
scalar randPrefNet.R1I7.relayIpc.relayAndMux.p4.outQ_0 	rmtqueue-drop:last 	-nan
attr source  count(RMTQueue_Drop)
attr title  "dropped PDUs, last"
scalar randPrefNet.R1I7.relayIpc.relayAndMux.p5.port 	rmtport-down:last 	9
attr source  count(RMTPort_PassDown)
attr title  "msg passed down, last"
scalar randPrefNet.R1I7.relayIpc.relayAndMux.p5.port 	rmtport-up:last 	9
attr ""  ""
attr source  count(RMTPort_PassUp)
attr title  "msg passed up, last"
scalar randPrefNet.R1I7.relayIpc.relayAndMux.p5.inQ_M 	rmtqueue-drop:last 	-nan
attr source  count(RMTQueue_Drop)
attr title  "dropped PDUs, last"
scalar randPrefNet.R1I7.relayIpc.relayAndMux.p5.outQ_M 	rmtqueue-drop:last 	-nan
attr source  count(RMTQueue_Drop)
attr title  "dropped PDUs, last"
scalar randPrefNet.R1I7.relayIpc.relayAndMux.p5.inQ_0 	rmtqueue-drop:last 	-nan
attr source  count(RMTQueue_Drop)
attr title  "dropped PDUs, last"
scalar randPrefNet.R1I7.relayIpc.relayAndMux.p5.outQ_0 	rmtqueue-drop:last 	-nan
attr source  count(RMTQueue_Drop)
attr title  "dropped PDUs, last"
scalar randPrefNet.R1I7.relayIpc.relayAndMux.p6.port 	rmtport-down:last 	9
attr source  count(RMTPort_PassDown)
attr title  "msg passed down, last"
scalar randPrefNet.R1I7.relayIpc.relayAndMux.p6.port 	rmtport-up:last 	9
attr ""  ""
attr source  count(RMTPort_PassUp)
attr title  "msg passed up, last"
scalar randPrefNet.R1I7.relayIpc.relayAndMux.p6.inQ_M 	rmtqueue-drop:last 	-nan
attr source  count(RMTQueue_Drop)
attr title  "dropped PDUs, last"
scalar randPrefNet.R1I7.relayIpc.relayAndMux.p6.outQ_M 	rmtqueue-drop:last 	-nan
attr source  count(RMTQueue_Drop)
attr title  "dropped PDUs, last"
scalar randPrefNet.R1I7.relayIpc.relayAndMux.p6.inQ_0 	rmtqueue-drop:last 	-nan
attr source  count(RMTQueue_Drop)
attr title  "dropped PDUs, last"
scalar randPrefNet.R1I7.relayIpc.relayAndMux.p6.outQ_0 	rmtqueue-drop:last 	-nan
attr source  count(RMTQueue_Drop)
attr title  "dropped PDUs, last"
scalar randPrefNet.R1I8.ipcProcess[0].relayAndMux.p0.port 	rmtport-down:last 	19
attr source  count(RMTPort_PassDown)
attr title  "msg passed down, last"
scalar randPrefNet.R1I8.ipcProcess[0].relayAndMux.p0.port 	rmtport-up:last 	19
attr ""  ""
attr source  count(RMTPort_PassUp)
attr title  "msg passed up, last"
scalar randPrefNet.R1I8.ipcProcess[0].relayAndMux.p0.inQ_M 	rmtqueue-drop:last 	-nan
attr source  count(RMTQueue_Drop)
attr title  "dropped PDUs, last"
scalar randPrefNet.R1I8.ipcProcess[0].relayAndMux.p0.outQ_M 	rmtqueue-drop:last 	-nan
attr source  count(RMTQueue_Drop)
attr title  "dropped PDUs, last"
scalar randPrefNet.R1I8.ipcProcess[0].relayAndMux.p0.inQ_0 	rmtqueue-drop:last 	-nan
attr source  count(RMTQueue_Drop)
attr title  "dropped PDUs, last"
scalar randPrefNet.R1I8.ipcProcess[0].relayAndMux.p0.outQ_0 	rmtqueue-drop:last 	-nan
attr source  count(RMTQueue_Drop)
attr title  "dropped PDUs, last"
scalar randPrefNet.R1I8.ipcProcess[1].relayAndMux.p0.port 	rmtport-down:last 	19
attr source  count(RMTPort_PassDown)
attr title  "msg passed down, last"
scalar randPrefNet.R1I8.ipcProcess[1].relayAndMux.p0.port 	rmtport-up:last 	19
attr ""  ""
attr source  count(RMTPort_PassUp)
attr title  "msg passed up, last"
scalar randPrefNet.R1I8.ipcProcess[1].relayAndMux.p0.inQ_M 	rmtqueue-drop:last 	-nan
attr source  count(RMTQueue_Drop)
attr title  "dropped PDUs, last"
scalar randPrefNet.R1I8.ipcProcess[1].relayAndMux.p0.outQ_M 	rmtqueue-drop:last 	-nan
attr source  count(RMTQueue_Drop)
attr title  "dropped PDUs, last"
scalar randPrefNet.R1I8.ipcProcess[1].relayAndMux.p0.inQ_0 	rmtqueue-drop:last 	-nan
attr source  count(RMTQueue_Drop)
attr title  "dropped PDUs, last"
scalar randPrefNet.R1I8.ipcProcess[1].relayAndMux.p0.outQ_0 	rmtqueue-drop:last 	-nan
attr source  count(RMTQueue_Drop)
attr title  "dropped PDUs, last"
scalar randPrefNet.R1I8.ipcProcess[2].relayAndMux.p0.port 	rmtport-down:last 	19
attr source  count(RMTPort_PassDown)
attr title  "msg passed down, last"
scalar randPrefNet.R1I8.ipcProcess[2].relayAndMux.p0.port 	rmtport-up:last 	19
attr ""  ""
attr source  count(RMTPort_PassUp)
attr title  "msg passed up, last"
scalar randPrefNet.R1I8.ipcProcess[2].relayAndMux.p0.inQ_M 	rmtqueue-drop:last 	-nan
attr source  count(RMTQueue_Drop)
attr title  "dropped PDUs, last"
scalar randPrefNet.R1I8.ipcProcess[2].relayAndMux.p0.outQ_M 	rmtqueue-drop:last 	-nan
attr source  count(RMTQueue_Drop)
attr title  "dropped PDUs, last"
scalar randPrefNet.R1I8.ipcProcess[2].relayAndMux.p0.inQ_0 	rmtqueue-drop:last 	-nan
attr source  count(RMTQueue_Drop)
attr title  "dropped PDUs, last"
scalar randPrefNet.R1I8.ipcProcess[2].relayAndMux.p0.outQ_0 	rmtqueue-drop:last 	-nan
attr source  count(RMTQueue_Drop)
attr title  "dropped PDUs, last"
scalar randPrefNet.R1I8.ipcProcess[3].relayAndMux.p0.port 	rmtport-down:last 	19
attr source  count(RMTPort_PassDown)
attr title  "msg passed down, last"
scalar randPrefNet.R1I8.ipcProcess[3].relayAndMux.p0.port 	rmtport-up:last 	19
attr ""  ""
attr source  count(RMTPort_PassUp)
attr title  "msg passed up, last"
scalar randPrefNet.R1I8.ipcProcess[3].relayAndMux.p0.inQ_M 	rmtqueue-drop:last 	-nan
attr source  count(RMTQueue_Drop)
attr title  "dropped PDUs, last"
scalar randPrefNet.R1I8.ipcProcess[3].relayAndMux.p0.outQ_M 	rmtqueue-drop:last 	-nan
attr source  count(RMTQueue_Drop)
attr title  "dropped PDUs, last"
scalar randPrefNet.R1I8.ipcProcess[3].relayAndMux.p0.inQ_0 	rmtqueue-drop:last 	-nan
attr source  count(RMTQueue_Drop)
attr title  "dropped PDUs, last"
scalar randPrefNet.R1I8.ipcProcess[3].relayAndMux.p0.outQ_0 	rmtqueue-drop:last 	-nan
attr source  count(RMTQueue_Drop)
attr title  "dropped PDUs, last"
scalar randPrefNet.R1I8.ipcProcess[4].relayAndMux.p0.port 	rmtport-down:last 	19
attr source  count(RMTPort_PassDown)
attr title  "msg passed down, last"
scalar randPrefNet.R1I8.ipcProcess[4].relayAndMux.p0.port 	rmtport-up:last 	19
attr ""  ""
attr source  count(RMTPort_PassUp)
attr title  "msg passed up, last"
scalar randPrefNet.R1I8.ipcProcess[4].relayAndMux.p0.inQ_M 	rmtqueue-drop:last 	-nan
attr source  count(RMTQueue_Drop)
attr title  "dropped PDUs, last"
scalar randPrefNet.R1I8.ipcProcess[4].relayAndMux.p0.outQ_M 	rmtqueue-drop:last 	-nan
attr source  count(RMTQueue_Drop)
attr title  "dropped PDUs, last"
scalar randPrefNet.R1I8.ipcProcess[4].relayAndMux.p0.inQ_0 	rmtqueue-drop:last 	-nan
attr source  count(RMTQueue_Drop)
attr title  "dropped PDUs, last"
scalar randPrefNet.R1I8.ipcProcess[4].relayAndMux.p0.outQ_0 	rmtqueue-drop:last 	-nan
attr source  count(RMTQueue_Drop)
attr title  "dropped PDUs, last"
scalar randPrefNet.R1I8.relayIpc.relayAndMux.p0.port 	rmtport-down:last 	9
attr source  count(RMTPort_PassDown)
attr title  "msg passed down, last"
scalar randPrefNet.R1I8.relayIpc.relayAndMux.p0.port 	rmtport-up:last 	9
attr ""  ""
attr source  count(RMTPort_PassUp)
attr title  "msg passed up, last"
scalar randPrefNet.R1I8.relayIpc.relayAndMux.p0.inQ_M 	rmtqueue-drop:last 	-nan
attr source  count(RMTQueue_Drop)
attr title  "dropped PDUs, last"
scalar randPrefNet.R1I8.relayIpc.relayAndMux.p0.outQ_M 	rmtqueue-drop:last 	-nan
attr source  count(RMTQueue_Drop)
attr title  "dropped PDUs, last"
scalar randPrefNet.R1I8.relayIpc.relayAndMux.p0.inQ_0 	rmtqueue-drop:last 	-nan
attr source  count(RMTQueue_Drop)
attr title  "dropped PDUs, last"
scalar randPrefNet.R1I8.relayIpc.relayAndMux.p0.outQ_0 	rmtqueue-drop:last 	-nan
attr source  count(RMTQueue_Drop)
attr title  "dropped PDUs, last"
scalar randPrefNet.R1I8.relayIpc.relayAndMux.p1.port 	rmtport-down:last 	9
attr source  count(RMTPort_PassDown)
attr title  "msg passed down, last"
scalar randPrefNet.R1I8.relayIpc.relayAndMux.p1.port 	rmtport-up:last 	9
attr ""  ""
attr source  count(RMTPort_PassUp)
attr title  "msg passed up, last"
scalar randPrefNet.R1I8.relayIpc.relayAndMux.p1.inQ_M 	rmtqueue-drop:last 	-nan
attr source  count(RMTQueue_Drop)
attr title  "dropped PDUs, last"
scalar randPrefNet.R1I8.relayIpc.relayAndMux.p1.outQ_M 	rmtqueue-drop:last 	-nan
attr source  count(RMTQueue_Drop)
attr title  "dropped PDUs, last"
scalar randPrefNet.R1I8.relayIpc.relayAndMux.p1.inQ_0 	rmtqueue-drop:last 	-nan
attr source  count(RMTQueue_Drop)
attr title  "dropped PDUs, last"
scalar randPrefNet.R1I8.relayIpc.relayAndMux.p1.outQ_0 	rmtqueue-drop:last 	-nan
attr source  count(RMTQueue_Drop)
attr title  "dropped PDUs, last"
scalar randPrefNet.R1I8.relayIpc.relayAndMux.p2.port 	rmtport-down:last 	9
attr source  count(RMTPort_PassDown)
attr title  "msg passed down, last"
scalar randPrefNet.R1I8.relayIpc.relayAndMux.p2.port 	rmtport-up:last 	9
attr ""  ""
attr source  count(RMTPort_PassUp)
attr title  "msg passed up, last"
scalar randPrefNet.R1I8.relayIpc.relayAndMux.p2.inQ_M 	rmtqueue-drop:last 	-nan
attr source  count(RMTQueue_Drop)
attr title  "dropped PDUs, last"
scalar randPrefNet.R1I8.relayIpc.relayAndMux.p2.outQ_M 	rmtqueue-drop:last 	-nan
attr source  count(RMTQueue_Drop)
attr title  "dropped PDUs, last"
scalar randPrefNet.R1I8.relayIpc.relayAndMux.p2.inQ_0 	rmtqueue-drop:last 	-nan
attr source  count(RMTQueue_Drop)
attr title  "dropped PDUs, last"
scalar randPrefNet.R1I8.relayIpc.relayAndMux.p2.outQ_0 	rmtqueue-drop:last 	-nan
attr source  count(RMTQueue_Drop)
attr title  "dropped PDUs, last"
scalar randPrefNet.R1I8.relayIpc.relayAndMux.p3.port 	rmtport-down:last 	9
attr source  count(RMTPort_PassDown)
attr title  "msg passed down, last"
scalar randPrefNet.R1I8.relayIpc.relayAndMux.p3.port 	rmtport-up:last 	9
attr ""  ""
attr source  count(RMTPort_PassUp)
attr title  "msg passed up, last"
scalar randPrefNet.R1I8.relayIpc.relayAndMux.p3.inQ_M 	rmtqueue-drop:last 	-nan
attr source  count(RMTQueue_Drop)
attr title  "dropped PDUs, last"
scalar randPrefNet.R1I8.relayIpc.relayAndMux.p3.outQ_M 	rmtqueue-drop:last 	-nan
attr source  count(RMTQueue_Drop)
attr title  "dropped PDUs, last"
scalar randPrefNet.R1I8.relayIpc.relayAndMux.p3.inQ_0 	rmtqueue-drop:last 	-nan
attr source  count(RMTQueue_Drop)
attr title  "dropped PDUs, last"
scalar randPrefNet.R1I8.relayIpc.relayAndMux.p3.outQ_0 	rmtqueue-drop:last 	-nan
attr source  count(RMTQueue_Drop)
attr title  "dropped PDUs, last"
scalar randPrefNet.R1I8.relayIpc.relayAndMux.p4.port 	rmtport-down:last 	9
attr source  count(RMTPort_PassDown)
attr title  "msg passed down, last"
scalar randPrefNet.R1I8.relayIpc.relayAndMux.p4.port 	rmtport-up:last 	9
attr ""  ""
attr source  count(RMTPort_PassUp)
attr title  "msg passed up, last"
scalar randPrefNet.R1I8.relayIpc.relayAndMux.p4.inQ_M 	rmtqueue-drop:last 	-nan
attr source  count(RMTQueue_Drop)
attr title  "dropped PDUs, last"
scalar randPrefNet.R1I8.relayIpc.relayAndMux.p4.outQ_M 	rmtqueue-drop:last 	-nan
attr source  count(RMTQueue_Drop)
attr title  "dropped PDUs, last"
scalar randPrefNet.R1I8.relayIpc.relayAndMux.p4.inQ_0 	rmtqueue-drop:last 	-nan
attr source  count(RMTQueue_Drop)
attr title  "dropped PDUs, last"
scalar randPrefNet.R1I8.relayIpc.relayAndMux.p4.outQ_0 	rmtqueue-drop:last 	-nan
attr source  count(RMTQueue_Drop)
attr title  "dropped PDUs, last"
scalar randPrefNet.R1I9.ipcProcess[0].relayAndMux.p0.port 	rmtport-down:last 	19
attr source  count(RMTPort_PassDown)
attr title  "msg passed down, last"
scalar randPrefNet.R1I9.ipcProcess[0].relayAndMux.p0.port 	rmtport-up:last 	19
attr ""  ""
attr source  count(RMTPort_PassUp)
attr title  "msg passed up, last"
scalar randPrefNet.R1I9.ipcProcess[0].relayAndMux.p0.inQ_M 	rmtqueue-drop:last 	-nan
attr source  count(RMTQueue_Drop)
attr title  "dropped PDUs, last"
scalar randPrefNet.R1I9.ipcProcess[0].relayAndMux.p0.outQ_M 	rmtqueue-drop:last 	-nan
attr source  count(RMTQueue_Drop)
attr title  "dropped PDUs, last"
scalar randPrefNet.R1I9.ipcProcess[0].relayAndMux.p0.inQ_0 	rmtqueue-drop:last 	-nan
attr source  count(RMTQueue_Drop)
attr title  "dropped PDUs, last"
scalar randPrefNet.R1I9.ipcProcess[0].relayAndMux.p0.outQ_0 	rmtqueue-drop:last 	-nan
attr source  count(RMTQueue_Drop)
attr title  "dropped PDUs, last"
scalar randPrefNet.R1I9.ipcProcess[1].relayAndMux.p0.port 	rmtport-down:last 	19
attr source  count(RMTPort_PassDown)
attr title  "msg passed down, last"
scalar randPrefNet.R1I9.ipcProcess[1].relayAndMux.p0.port 	rmtport-up:last 	19
attr ""  ""
attr source  count(RMTPort_PassUp)
attr title  "msg passed up, last"
scalar randPrefNet.R1I9.ipcProcess[1].relayAndMux.p0.inQ_M 	rmtqueue-drop:last 	-nan
attr source  count(RMTQueue_Drop)
attr title  "dropped PDUs, last"
scalar randPrefNet.R1I9.ipcProcess[1].relayAndMux.p0.outQ_M 	rmtqueue-drop:last 	-nan
attr source  count(RMTQueue_Drop)
attr title  "dropped PDUs, last"
scalar randPrefNet.R1I9.ipcProcess[1].relayAndMux.p0.inQ_0 	rmtqueue-drop:last 	-nan
attr source  count(RMTQueue_Drop)
attr title  "dropped PDUs, last"
scalar randPrefNet.R1I9.ipcProcess[1].relayAndMux.p0.outQ_0 	rmtqueue-drop:last 	-nan
attr source  count(RMTQueue_Drop)
attr title  "dropped PDUs, last"
scalar randPrefNet.R1I9.ipcProcess[2].relayAndMux.p0.port 	rmtport-down:last 	19
attr source  count(RMTPort_PassDown)
attr title  "msg passed down, last"
scalar randPrefNet.R1I9.ipcProcess[2].relayAndMux.p0.port 	rmtport-up:last 	19
attr ""  ""
attr source  count(RMTPort_PassUp)
attr title  "msg passed up, last"
scalar randPrefNet.R1I9.ipcProcess[2].relayAndMux.p0.inQ_M 	rmtqueue-drop:last 	-nan
attr source  count(RMTQueue_Drop)
attr title  "dropped PDUs, last"
scalar randPrefNet.R1I9.ipcProcess[2].relayAndMux.p0.outQ_M 	rmtqueue-drop:last 	-nan
attr source  count(RMTQueue_Drop)
attr title  "dropped PDUs, last"
scalar randPrefNet.R1I9.ipcProcess[2].relayAndMux.p0.inQ_0 	rmtqueue-drop:last 	-nan
attr source  count(RMTQueue_Drop)
attr title  "dropped PDUs, last"
scalar randPrefNet.R1I9.ipcProcess[2].relayAndMux.p0.outQ_0 	rmtqueue-drop:last 	-nan
attr source  count(RMTQueue_Drop)
attr title  "dropped PDUs, last"
scalar randPrefNet.R1I9.ipcProcess[3].relayAndMux.p0.port 	rmtport-down:last 	19
attr source  count(RMTPort_PassDown)
attr title  "msg passed down, last"
scalar randPrefNet.R1I9.ipcProcess[3].relayAndMux.p0.port 	rmtport-up:last 	19
attr ""  ""
attr source  count(RMTPort_PassUp)
attr title  "msg passed up, last"
scalar randPrefNet.R1I9.ipcProcess[3].relayAndMux.p0.inQ_M 	rmtqueue-drop:last 	-nan
attr source  count(RMTQueue_Drop)
attr title  "dropped PDUs, last"
scalar randPrefNet.R1I9.ipcProcess[3].relayAndMux.p0.outQ_M 	rmtqueue-drop:last 	-nan
attr source  count(RMTQueue_Drop)
attr title  "dropped PDUs, last"
scalar randPrefNet.R1I9.ipcProcess[3].relayAndMux.p0.inQ_0 	rmtqueue-drop:last 	-nan
attr source  count(RMTQueue_Drop)
attr title  "dropped PDUs, last"
scalar randPrefNet.R1I9.ipcProcess[3].relayAndMux.p0.outQ_0 	rmtqueue-drop:last 	-nan
attr source  count(RMTQueue_Drop)
attr title  "dropped PDUs, last"
scalar randPrefNet.R1I9.ipcProcess[4].relayAndMux.p0.port 	rmtport-down:last 	19
attr source  count(RMTPort_PassDown)
attr title  "msg passed down, last"
scalar randPrefNet.R1I9.ipcProcess[4].relayAndMux.p0.port 	rmtport-up:last 	19
attr ""  ""
attr source  count(RMTPort_PassUp)
attr title  "msg passed up, last"
scalar randPrefNet.R1I9.ipcProcess[4].relayAndMux.p0.inQ_M 	rmtqueue-drop:last 	-nan
attr source  count(RMTQueue_Drop)
attr title  "dropped PDUs, last"
scalar randPrefNet.R1I9.ipcProcess[4].relayAndMux.p0.outQ_M 	rmtqueue-drop:last 	-nan
attr source  count(RMTQueue_Drop)
attr title  "dropped PDUs, last"
scalar randPrefNet.R1I9.ipcProcess[4].relayAndMux.p0.inQ_0 	rmtqueue-drop:last 	-nan
attr source  count(RMTQueue_Drop)
attr title  "dropped PDUs, last"
scalar randPrefNet.R1I9.ipcProcess[4].relayAndMux.p0.outQ_0 	rmtqueue-drop:last 	-nan
attr source  count(RMTQueue_Drop)
attr title  "dropped PDUs, last"
scalar randPrefNet.R1I9.relayIpc.relayAndMux.p0.port 	rmtport-down:last 	9
attr source  count(RMTPort_PassDown)
attr title  "msg passed down, last"
scalar randPrefNet.R1I9.relayIpc.relayAndMux.p0.port 	rmtport-up:last 	9
attr ""  ""
attr source  count(RMTPort_PassUp)
attr title  "msg passed up, last"
scalar randPrefNet.R1I9.relayIpc.relayAndMux.p0.inQ_M 	rmtqueue-drop:last 	-nan
attr source  count(RMTQueue_Drop)
attr title  "dropped PDUs, last"
scalar randPrefNet.R1I9.relayIpc.relayAndMux.p0.outQ_M 	rmtqueue-drop:last 	-nan
[...]
attr source  count(RMTQueue_Drop)
attr title  "dropped PDUs, last"
scalar randPrefNet.RfId.relayIpc.relayAndMux.p0.port 	rmtport-down:last 	9
attr source  count(RMTPort_PassDown)
attr title  "msg passed down, last"
scalar randPrefNet.RfId.relayIpc.relayAndMux.p0.port 	rmtport-up:last 	9
attr ""  ""
attr source  count(RMTPort_PassUp)
attr title  "msg passed up, last"
scalar randPrefNet.RfId.relayIpc.relayAndMux.p0.inQ_M 	rmtqueue-drop:last 	-nan
attr source  count(RMTQueue_Drop)
attr title  "dropped PDUs, last"
scalar randPrefNet.RfId.relayIpc.relayAndMux.p0.outQ_M 	rmtqueue-drop:last 	-nan
attr source  count(RMTQueue_Drop)
attr title  "dropped PDUs, last"
scalar randPrefNet.RfId.relayIpc.relayAndMux.p0.inQ_0 	rmtqueue-drop:last 	-nan
attr source  count(RMTQueue_Drop)
attr title  "dropped PDUs, last"
scalar randPrefNet.RfId.relayIpc.relayAndMux.p0.outQ_0 	rmtqueue-drop:last 	-nan
attr source  count(RMTQueue_Drop)
attr title  "dropped PDUs, last"
scalar randPrefNet.RfId.relayIpc.relayAndMux.p1.port 	rmtport-down:last 	9
attr source  count(RMTPort_PassDown)
attr title  "msg passed down, last"
scalar randPrefNet.RfId.relayIpc.relayAndMux.p1.port 	rmtport-up:last 	9
attr ""  ""
attr source  count(RMTPort_PassUp)
attr title  "msg passed up, last"
scalar randPrefNet.RfId.relayIpc.relayAndMux.p1.inQ_M 	rmtqueue-drop:last 	-nan
attr source  count(RMTQueue_Drop)
attr title  "dropped PDUs, last"
scalar randPrefNet.RfId.relayIpc.relayAndMux.p1.outQ_M 	rmtqueue-drop:last 	-nan
attr source  count(RMTQueue_Drop)
attr title  "dropped PDUs, last"
scalar randPrefNet.RfId.relayIpc.relayAndMux.p1.inQ_0 	rmtqueue-drop:last 	-nan
attr source  count(RMTQueue_Drop)
attr title  "dropped PDUs, last"
scalar randPrefNet.RfId.relayIpc.relayAndMux.p1.outQ_0 	rmtqueue-drop:last 	-nan
attr source  count(RMTQueue_Drop)
attr title  "dropped PDUs, last"
scalar randPrefNet.RfId.relayIpc.relayAndMux.p2.port 	rmtport-down:last 	9
attr source  count(RMTPort_PassDown)
attr title  "msg passed down, last"
scalar randPrefNet.RfId.relayIpc.relayAndMux.p2.port 	rmtport-up:last 	9
attr ""  ""
attr source  count(RMTPort_PassUp)
attr title  "msg passed up, last"
scalar randPrefNet.RfId.relayIpc.relayAndMux.p2.inQ_M 	rmtqueue-drop:last 	-nan
attr source  count(RMTQueue_Drop)
attr title  "dropped PDUs, last"
scalar randPrefNet.RfId.relayIpc.relayAndMux.p2.outQ_M 	rmtqueue-drop:last 	-nan
attr source  count(RMTQueue_Drop)
attr title  "dropped PDUs, last"
scalar randPrefNet.RfId.relayIpc.relayAndMux.p2.inQ_0 	rmtqueue-drop:last 	-nan
attr source  count(RMTQueue_Drop)
attr title  "dropped PDUs, last"
scalar randPrefNet.RfId.relayIpc.relayAndMux.p2.outQ_0 	rmtqueue-drop:last 	-nan
attr source  count(RMTQueue_Drop)
attr title  "dropped PDUs, last"
scalar randPrefNet.RfId.relayIpc.relayAndMux.p3.port 	rmtport-down:last 	9
attr source  count(RMTPort_PassDown)
attr title  "msg passed down, last"
scalar randPrefNet.RfId.relayIpc.relayAndMux.p3.port 	rmtport-up:last 	9
attr ""  ""
attr source  count(RMTPort_PassUp)
attr title  "msg passed up, last"
scalar randPrefNet.RfId.relayIpc.relayAndMux.p3.inQ_M 	rmtqueue-drop:last 	-nan
attr source  count(RMTQueue_Drop)
attr title  "dropped PDUs, last"
scalar randPrefNet.RfId.relayIpc.relayAndMux.p3.outQ_M 	rmtqueue-drop:last 	-nan
attr source  count(RMTQueue_Drop)
attr title  "dropped PDUs, last"
scalar randPrefNet.RfId.relayIpc.relayAndMux.p3.inQ_0 	rmtqueue-drop:last 	-nan
attr source  count(RMTQueue_Drop)
attr title  "dropped PDUs, last"
scalar randPrefNet.RfId.relayIpc.relayAndMux.p3.outQ_0 	rmtqueue-drop:last 	-nan
attr source  count(RMTQueue_Drop)
attr title  "dropped PDUs, last"
scalar randPrefNet.RfId.relayIpc.relayAndMux.p4.port 	rmtport-down:last 	9
attr source  count(RMTPort_PassDown)
attr title  "msg passed down, last"
scalar randPrefNet.RfId.relayIpc.relayAndMux.p4.port 	rmtport-up:last 	9
attr ""  ""
attr source  count(RMTPort_PassUp)
attr title  "msg passed up, last"
scalar randPrefNet.RfId.relayIpc.relayAndMux.p4.inQ_M 	rmtqueue-drop:last 	-nan
attr source  count(RMTQueue_Drop)
attr title  "dropped PDUs, last"
scalar randPrefNet.RfId.relayIpc.relayAndMux.p4.outQ_M 	rmtqueue-drop:last 	-nan
attr source  count(RMTQueue_Drop)
attr title  "dropped PDUs, last"
scalar randPrefNet.RfId.relayIpc.relayAndMux.p4.inQ_0 	rmtqueue-drop:last 	-nan
attr source  count(RMTQueue_Drop)
attr title  "dropped PDUs, last"
scalar randPrefNet.RfId.relayIpc.relayAndMux.p4.outQ_0 	rmtqueue-drop:last 	-nan
attr source  count(RMTQueue_Drop)
attr title  "dropped PDUs, last"
scalar randPrefNet.RfId.relayIpc.relayAndMux.p5.port 	rmtport-down:last 	9
attr source  count(RMTPort_PassDown)
attr title  "msg passed down, last"
scalar randPrefNet.RfId.relayIpc.relayAndMux.p5.port 	rmtport-up:last 	9
attr ""  ""
attr source  count(RMTPort_PassUp)
attr title  "msg passed up, last"
scalar randPrefNet.RfId.relayIpc.relayAndMux.p5.inQ_M 	rmtqueue-drop:last 	-nan
attr source  count(RMTQueue_Drop)
attr title  "dropped PDUs, last"
scalar randPrefNet.RfId.relayIpc.relayAndMux.p5.outQ_M 	rmtqueue-drop:last 	-nan
attr source  count(RMTQueue_Drop)
attr title  "dropped PDUs, last"
scalar randPrefNet.RfId.relayIpc.relayAndMux.p5.inQ_0 	rmtqueue-drop:last 	-nan
attr source  count(RMTQueue_Drop)
attr title  "dropped PDUs, last"
scalar randPrefNet.RfId.relayIpc.relayAndMux.p5.outQ_0 	rmtqueue-drop:last 	-nan
attr source  count(RMTQueue_Drop)
attr title  "dropped PDUs, last"
scalar randPrefNet.RfIe.ipcProcess[0].relayAndMux.p0.port 	rmtport-down:last 	19
attr source  count(RMTPort_PassDown)
attr title  "msg passed down, last"
scalar randPrefNet.RfIe.ipcProcess[0].relayAndMux.p0.port 	rmtport-up:last 	19
attr ""  ""
attr source  count(RMTPort_PassUp)
attr title  "msg passed up, last"
scalar randPrefNet.RfIe.ipcProcess[0].relayAndMux.p0.inQ_M 	rmtqueue-drop:last 	-nan
attr source  count(RMTQueue_Drop)
attr title  "dropped PDUs, last"
scalar randPrefNet.RfIe.ipcProcess[0].relayAndMux.p0.outQ_M 	rmtqueue-drop:last 	-nan
attr source  count(RMTQueue_Drop)
attr title  "dropped PDUs, last"
scalar randPrefNet.RfIe.ipcProcess[0].relayAndMux.p0.inQ_0 	rmtqueue-drop:last 	-nan
attr source  count(RMTQueue_Drop)
attr title  "dropped PDUs, last"
scalar randPrefNet.RfIe.ipcProcess[0].relayAndMux.p0.outQ_0 	rmtqueue-drop:last 	-nan
attr source  count(RMTQueue_Drop)
attr title  "dropped PDUs, last"
scalar randPrefNet.RfIe.ipcProcess[1].relayAndMux.p0.port 	rmtport-down:last 	19
attr source  count(RMTPort_PassDown)
attr title  "msg passed down, last"
scalar randPrefNet.RfIe.ipcProcess[1].relayAndMux.p0.port 	rmtport-up:last 	19
attr ""  ""
attr source  count(RMTPort_PassUp)
attr title  "msg passed up, last"
scalar randPrefNet.RfIe.ipcProcess[1].relayAndMux.p0.inQ_M 	rmtqueue-drop:last 	-nan
attr source  count(RMTQueue_Drop)
attr title  "dropped PDUs, last"
scalar randPrefNet.RfIe.ipcProcess[1].relayAndMux.p0.outQ_M 	rmtqueue-drop:last 	-nan
attr source  count(RMTQueue_Drop)
attr title  "dropped PDUs, last"
scalar randPrefNet.RfIe.ipcProcess[1].relayAndMux.p0.inQ_0 	rmtqueue-drop:last 	-nan
attr source  count(RMTQueue_Drop)
attr title  "dropped PDUs, last"
scalar randPrefNet.RfIe.ipcProcess[1].relayAndMux.p0.outQ_0 	rmtqueue-drop:last 	-nan
attr source  count(RMTQueue_Drop)
attr title  "dropped PDUs, last"
scalar randPrefNet.RfIe.ipcProcess[2].relayAndMux.p0.port 	rmtport-down:last 	19
attr source  count(RMTPort_PassDown)
attr title  "msg passed down, last"
scalar randPrefNet.RfIe.ipcProcess[2].relayAndMux.p0.port 	rmtport-up:last 	19
attr ""  ""
attr source  count(RMTPort_PassUp)
attr title  "msg passed up, last"
scalar randPrefNet.RfIe.ipcProcess[2].relayAndMux.p0.inQ_M 	rmtqueue-drop:last 	-nan
attr source  count(RMTQueue_Drop)
attr title  "dropped PDUs, last"
scalar randPrefNet.RfIe.ipcProcess[2].relayAndMux.p0.outQ_M 	rmtqueue-drop:last 	-nan
attr source  count(RMTQueue_Drop)
attr title  "dropped PDUs, last"
scalar randPrefNet.RfIe.ipcProcess[2].relayAndMux.p0.inQ_0 	rmtqueue-drop:last 	-nan
attr source  count(RMTQueue_Drop)
attr title  "dropped PDUs, last"
scalar randPrefNet.RfIe.ipcProcess[2].relayAndMux.p0.outQ_0 	rmtqueue-drop:last 	-nan
attr source  count(RMTQueue_Drop)
attr title  "dropped PDUs, last"
scalar randPrefNet.RfIe.ipcProcess[3].relayAndMux.p0.port 	rmtport-down:last 	19
attr source  count(RMTPort_PassDown)
attr title  "msg passed down, last"
scalar randPrefNet.RfIe.ipcProcess[3].relayAndMux.p0.port 	rmtport-up:last 	19
attr ""  ""
attr source  count(RMTPort_PassUp)
attr title  "msg passed up, last"
scalar randPrefNet.RfIe.ipcProcess[3].relayAndMux.p0.inQ_M 	rmtqueue-drop:last 	-nan
attr source  count(RMTQueue_Drop)
attr title  "dropped PDUs, last"
scalar randPrefNet.RfIe.ipcProcess[3].relayAndMux.p0.outQ_M 	rmtqueue-drop:last 	-nan
attr source  count(RMTQueue_Drop)
attr title  "dropped PDUs, last"
scalar randPrefNet.RfIe.ipcProcess[3].relayAndMux.p0.inQ_0 	rmtqueue-drop:last 	-nan
attr source  count(RMTQueue_Drop)
attr title  "dropped PDUs, last"
scalar randPrefNet.RfIe.ipcProcess[3].relayAndMux.p0.outQ_0 	rmtqueue-drop:last 	-nan
attr source  count(RMTQueue_Drop)
attr title  "dropped PDUs, last"
scalar randPrefNet.RfIe.ipcProcess[4].relayAndMux.p0.port 	rmtport-down:last 	19
attr source  count(RMTPort_PassDown)
attr title  "msg passed down, last"
scalar randPrefNet.RfIe.ipcProcess[4].relayAndMux.p0.port 	rmtport-up:last 	19
attr ""  ""
attr source  count(RMTPort_PassUp)
attr title  "msg passed up, last"
scalar randPrefNet.RfIe.ipcProcess[4].relayAndMux.p0.inQ_M 	rmtqueue-drop:last 	-nan
attr source  count(RMTQueue_Drop)
attr title  "dropped PDUs, last"
scalar randPrefNet.RfIe.ipcProcess[4].relayAndMux.p0.outQ_M 	rmtqueue-drop:last 	-nan
attr source  count(RMTQueue_Drop)
attr title  "dropped PDUs, last"
scalar randPrefNet.RfIe.ipcProcess[4].relayAndMux.p0.inQ_0 	rmtqueue-drop:last 	-nan
attr source  count(RMTQueue_Drop)
attr title  "dropped PDUs, last"
scalar randPrefNet.RfIe.ipcProcess[4].relayAndMux.p0.outQ_0 	rmtqueue-drop:last 	-nan
attr source  count(RMTQueue_Drop)
attr title  "dropped PDUs, last"
scalar randPrefNet.RfIe.relayIpc.relayAndMux.p0.port 	rmtport-down:last 	9
attr source  count(RMTPort_PassDown)
attr title  "msg passed down, last"
scalar randPrefNet.RfIe.relayIpc.relayAndMux.p0.port 	rmtport-up:last 	9
attr ""  ""
attr source  count(RMTPort_PassUp)
attr title  "msg passed up, last"
scalar randPrefNet.RfIe.relayIpc.relayAndMux.p0.inQ_M 	rmtqueue-drop:last 	-nan
attr source  count(RMTQueue_Drop)
attr title  "dropped PDUs, last"
scalar randPrefNet.RfIe.relayIpc.relayAndMux.p0.outQ_M 	rmtqueue-drop:last 	-nan
attr source  count(RMTQueue_Drop)
attr title  "dropped PDUs, last"
scalar randPrefNet.RfIe.relayIpc.relayAndMux.p0.inQ_0 	rmtqueue-drop:last 	-nan
attr source  count(RMTQueue_Drop)
attr title  "dropped PDUs, last"
scalar randPrefNet.RfIe.relayIpc.relayAndMux.p0.outQ_0 	rmtqueue-drop:last 	-nan
attr source  count(RMTQueue_Drop)
attr title  "dropped PDUs, last"
scalar randPrefNet.RfIe.relayIpc.relayAndMux.p1.port 	rmtport-down:last 	9
attr source  count(RMTPort_PassDown)
attr title  "msg passed down, last"
scalar randPrefNet.RfIe.relayIpc.relayAndMux.p1.port 	rmtport-up:last 	9
attr ""  ""
attr source  count(RMTPort_PassUp)
attr title  "msg passed up, last"
scalar randPrefNet.RfIe.relayIpc.relayAndMux.p1.inQ_M 	rmtqueue-drop:last 	-nan
attr source  count(RMTQueue_Drop)
attr title  "dropped PDUs, last"
scalar randPrefNet.RfIe.relayIpc.relayAndMux.p1.outQ_M 	rmtqueue-drop:last 	-nan
attr source  count(RMTQueue_Drop)
attr title  "dropped PDUs, last"
scalar randPrefNet.RfIe.relayIpc.relayAndMux.p1.inQ_0 	rmtqueue-drop:last 	-nan
attr source  count(RMTQueue_Drop)
attr title  "dropped PDUs, last"
scalar randPrefNet.RfIe.relayIpc.relayAndMux.p1.outQ_0 	rmtqueue-drop:last 	-nan
attr source  count(RMTQueue_Drop)
attr title  "dropped PDUs, last"
scalar randPrefNet.RfIe.relayIpc.relayAndMux.p2.port 	rmtport-down:last 	9
attr source  count(RMTPort_PassDown)
attr title  "msg passed down, last"
scalar randPrefNet.RfIe.relayIpc.relayAndMux.p2.port 	rmtport-up:last 	9
attr ""  ""
attr source  count(RMTPort_PassUp)
attr title  "msg passed up, last"
scalar randPrefNet.RfIe.relayIpc.relayAndMux.p2.inQ_M 	rmtqueue-drop:last 	-nan
attr source  count(RMTQueue_Drop)
attr title  "dropped PDUs, last"
scalar randPrefNet.RfIe.relayIpc.relayAndMux.p2.outQ_M 	rmtqueue-drop:last 	-nan
attr source  count(RMTQueue_Drop)
attr title  "dropped PDUs, last"
scalar randPrefNet.RfIe.relayIpc.relayAndMux.p2.inQ_0 	rmtqueue-drop:last 	-nan
attr source  count(RMTQueue_Drop)
attr title  "dropped PDUs, last"
scalar randPrefNet.RfIe.relayIpc.relayAndMux.p2.outQ_0 	rmtqueue-drop:last 	-nan
attr source  count(RMTQueue_Drop)
attr title  "dropped PDUs, last"
scalar randPrefNet.RfIe.relayIpc.relayAndMux.p3.port 	rmtport-down:last 	9
attr source  count(RMTPort_PassDown)
attr title  "msg passed down, last"
scalar randPrefNet.RfIe.relayIpc.relayAndMux.p3.port 	rmtport-up:last 	9
attr ""  ""
attr source  count(RMTPort_PassUp)
attr title  "msg passed up, last"
scalar randPrefNet.RfIe.relayIpc.relayAndMux.p3.inQ_M 	rmtqueue-drop:last 	-nan
attr source  count(RMTQueue_Drop)
attr title  "dropped PDUs, last"
scalar randPrefNet.RfIe.relayIpc.relayAndMux.p3.outQ_M 	rmtqueue-drop:last 	-nan
attr source  count(RMTQueue_Drop)
attr title  "dropped PDUs, last"
scalar randPrefNet.RfIe.relayIpc.relayAndMux.p3.inQ_0 	rmtqueue-drop:last 	-nan
attr source  count(RMTQueue_Drop)
attr title  "dropped PDUs, last"
scalar randPrefNet.RfIe.relayIpc.relayAndMux.p3.outQ_0 	rmtqueue-drop:last 	-nan
attr source  count(RMTQueue_Drop)
attr title  "dropped PDUs, last"
scalar randPrefNet.RfIe.relayIpc.relayAndMux.p4.port 	rmtport-down:last 	9
attr source  count(RMTPort_PassDown)
attr title  "msg passed down, last"
scalar randPrefNet.RfIe.relayIpc.relayAndMux.p4.port 	rmtport-up:last 	9
attr ""  ""
attr source  count(RMTPort_PassUp)
attr title  "msg passed up, last"
scalar randPrefNet.RfIe.relayIpc.relayAndMux.p4.inQ_M 	rmtqueue-drop:last 	-nan
attr source  count(RMTQueue_Drop)
attr title  "dropped PDUs, last"
scalar randPrefNet.RfIe.relayIpc.relayAndMux.p4.outQ_M 	rmtqueue-drop:last 	-nan
attr source  count(RMTQueue_Drop)
attr title  "dropped PDUs, last"
scalar randPrefNet.RfIe.relayIpc.relayAndMux.p4.inQ_0 	rmtqueue-drop:last 	-nan
attr source  count(RMTQueue_Drop)
attr title  "dropped PDUs, last"
scalar randPrefNet.RfIe.relayIpc.relayAndMux.p4.outQ_0 	rmtqueue-drop:last 	-nan
attr source  count(RMTQueue_Drop)
attr title  "dropped PDUs, last"
scalar randPrefNet.RfIf.ipcProcess[0].relayAndMux.p0.port 	rmtport-down:last 	19
attr source  count(RMTPort_PassDown)
attr title  "msg passed down, last"
scalar randPrefNet.RfIf.ipcProcess[0].relayAndMux.p0.port 	rmtport-up:last 	19
attr ""  ""
attr source  count(RMTPort_PassUp)
attr title  "msg passed up, last"
scalar randPrefNet.RfIf.ipcProcess[0].relayAndMux.p0.inQ_M 	rmtqueue-drop:last 	-nan
attr source  count(RMTQueue_Drop)
attr title  "dropped PDUs, last"
scalar randPrefNet.RfIf.ipcProcess[0].relayAndMux.p0.outQ_M 	rmtqueue-drop:last 	-nan
attr source  count(RMTQueue_Drop)
attr title  "dropped PDUs, last"
scalar randPrefNet.RfIf.ipcProcess[0].relayAndMux.p0.inQ_0 	rmtqueue-drop:last 	-nan
attr source  count(RMTQueue_Drop)
attr title  "dropped PDUs, last"
scalar randPrefNet.RfIf.ipcProcess[0].relayAndMux.p0.outQ_0 	rmtqueue-drop:last 	-nan
attr source  count(RMTQueue_Drop)
attr title  "dropped PDUs, last"
scalar randPrefNet.RfIf.ipcProcess[1].relayAndMux.p0.port 	rmtport-down:last 	19
attr source  count(RMTPort_PassDown)
attr title  "msg passed down, last"
scalar randPrefNet.RfIf.ipcProcess[1].relayAndMux.p0.port 	rmtport-up:last 	19
attr ""  ""
attr source  count(RMTPort_PassUp)
attr title  "msg passed up, last"
scalar randPrefNet.RfIf.ipcProcess[1].relayAndMux.p0.inQ_M 	rmtqueue-drop:last 	-nan
attr source  count(RMTQueue_Drop)
attr title  "dropped PDUs, last"
scalar randPrefNet.RfIf.ipcProcess[1].relayAndMux.p0.outQ_M 	rmtqueue-drop:last 	-nan
attr source  count(RMTQueue_Drop)
attr title  "dropped PDUs, last"
scalar randPrefNet.RfIf.ipcProcess[1].relayAndMux.p0.inQ_0 	rmtqueue-drop:last 	-nan
attr source  count(RMTQueue_Drop)
attr title  "dropped PDUs, last"
scalar randPrefNet.RfIf.ipcProcess[1].relayAndMux.p0.outQ_0 	rmtqueue-drop:last 	-nan
attr source  count(RMTQueue_Drop)
attr title  "dropped PDUs, last"
scalar randPrefNet.RfIf.ipcProcess[2].relayAndMux.p0.port 	rmtport-down:last 	19
attr source  count(RMTPort_PassDown)
attr title  "msg passed down, last"
scalar randPrefNet.RfIf.ipcProcess[2].relayAndMux.p0.port 	rmtport-up:last 	19
attr ""  ""
attr source  count(RMTPort_PassUp)
attr title  "msg passed up, last"
scalar randPrefNet.RfIf.ipcProcess[2].relayAndMux.p0.inQ_M 	rmtqueue-drop:last 	-nan
attr source  count(RMTQueue_Drop)
attr title  "dropped PDUs, last"
scalar randPrefNet.RfIf.ipcProcess[2].relayAndMux.p0.outQ_M 	rmtqueue-drop:last 	-nan
attr source  count(RMTQueue_Drop)
attr title  "dropped PDUs, last"
scalar randPrefNet.RfIf.ipcProcess[2].relayAndMux.p0.inQ_0 	rmtqueue-drop:last 	-nan
attr source  count(RMTQueue_Drop)
attr title  "dropped PDUs, last"
scalar randPrefNet.RfIf.ipcProcess[2].relayAndMux.p0.outQ_0 	rmtqueue-drop:last 	-nan
attr source  count(RMTQueue_Drop)
attr title  "dropped PDUs, last"
scalar randPrefNet.RfIf.relayIpc.relayAndMux.p0.port 	rmtport-down:last 	9
attr source  count(RMTPort_PassDown)
attr title  "msg passed down, last"
scalar randPrefNet.RfIf.relayIpc.relayAndMux.p0.port 	rmtport-up:last 	9
attr ""  ""
attr source  count(RMTPort_PassUp)
attr title  "msg passed up, last"
scalar randPrefNet.RfIf.relayIpc.relayAndMux.p0.inQ_M 	rmtqueue-drop:last 	-nan
attr source  count(RMTQueue_Drop)
attr title  "dropped PDUs, last"
scalar randPrefNet.RfIf.relayIpc.relayAndMux.p0.outQ_M 	rmtqueue-drop:last 	-nan
attr source  count(RMTQueue_Drop)
attr title  "dropped PDUs, last"
scalar randPrefNet.RfIf.relayIpc.relayAndMux.p0.inQ_0 	rmtqueue-drop:last 	-nan
attr source  count(RMTQueue_Drop)
attr title  "dropped PDUs, last"
scalar randPrefNet.RfIf.relayIpc.relayAndMux.p0.outQ_0 	rmtqueue-drop:last 	-nan
attr source  count(RMTQueue_Drop)
attr title  "dropped PDUs, last"
scalar randPrefNet.RfIf.relayIpc.relayAndMux.p1.port 	rmtport-down:last 	9
attr source  count(RMTPort_PassDown)
attr title  "msg passed down, last"
scalar randPrefNet.RfIf.relayIpc.relayAndMux.p1.port 	rmtport-up:last 	9
attr ""  ""
attr source  count(RMTPort_PassUp)
attr title  "msg passed up, last"
scalar randPrefNet.RfIf.relayIpc.relayAndMux.p1.inQ_M 	rmtqueue-drop:last 	-nan
attr source  count(RMTQueue_Drop)
attr title  "dropped PDUs, last"
scalar randPrefNet.RfIf.relayIpc.relayAndMux.p1.outQ_M 	rmtqueue-drop:last 	-nan
attr source  count(RMTQueue_Drop)
attr title  "dropped PDUs, last"
scalar randPrefNet.RfIf.relayIpc.relayAndMux.p1.inQ_0 	rmtqueue-drop:last 	-nan
attr source  count(RMTQueue_Drop)
attr title  "dropped PDUs, last"
scalar randPrefNet.RfIf.relayIpc.relayAndMux.p1.outQ_0 	rmtqueue-drop:last 	-nan
attr source  count(RMTQueue_Drop)
attr title  "dropped PDUs, last"
scalar randPrefNet.RfIf.relayIpc.relayAndMux.p2.port 	rmtport-down:last 	9
attr source  count(RMTPort_PassDown)
attr title  "msg passed down, last"
scalar randPrefNet.RfIf.relayIpc.relayAndMux.p2.port 	rmtport-up:last 	9
attr ""  ""
attr source  count(RMTPort_PassUp)
attr title  "msg passed up, last"
scalar randPrefNet.RfIf.relayIpc.relayAndMux.p2.inQ_M 	rmtqueue-drop:last 	-nan
attr source  count(RMTQueue_Drop)
attr title  "dropped PDUs, last"
scalar randPrefNet.RfIf.relayIpc.relayAndMux.p2.outQ_M 	rmtqueue-drop:last 	-nan
attr source  count(RMTQueue_Drop)
attr title  "dropped PDUs, last"
scalar randPrefNet.RfIf.relayIpc.relayAndMux.p2.inQ_0 	rmtqueue-drop:last 	-nan
attr source  count(RMTQueue_Drop)
attr title  "dropped PDUs, last"
scalar randPrefNet.RfIf.relayIpc.relayAndMux.p2.outQ_0 	rmtqueue-drop:last 	-nan
attr source  count(RMTQueue_Drop)
attr title  "dropped PDUs, last"
