version 2
run General-0-20150311-14:35:35-21948
attr configname General
attr datetime 20150311-14:35:35
attr experiment General
attr inifile omnetpp.ini
attr iterationvars ""
attr iterationvars2 $repetition=0
attr measurement ""
attr network treeBipart
attr processid 21948
attr repetition 0
attr replication #0
attr resultdir results
attr runnumber 0
attr seedset 0

scalar treeBipart.N0.ipcProcess[0].relayAndMux.p0.port 	rmtport-down:last 	52
attr source  count(RMTPort_PassDown)
attr title  "msg passed down, last"
scalar treeBipart.N0.ipcProcess[0].relayAndMux.p0.port 	rmtport-up:last 	52
attr ""  ""
attr source  count(RMTPort_PassUp)
attr title  "msg passed up, last"
scalar treeBipart.N0.ipcProcess[0].relayAndMux.p0.inQ_M 	rmtqueue-drop:last 	-nan
attr source  count(RMTQueue_Drop)
attr title  "dropped PDUs, last"
scalar treeBipart.N0.ipcProcess[0].relayAndMux.p0.outQ_M 	rmtqueue-drop:last 	-nan
attr source  count(RMTQueue_Drop)
attr title  "dropped PDUs, last"
scalar treeBipart.N0.ipcProcess[0].relayAndMux.p0.inQ_0 	rmtqueue-drop:last 	-nan
attr source  count(RMTQueue_Drop)
attr title  "dropped PDUs, last"
scalar treeBipart.N0.ipcProcess[0].relayAndMux.p0.outQ_0 	rmtqueue-drop:last 	-nan
attr source  count(RMTQueue_Drop)
attr title  "dropped PDUs, last"
scalar treeBipart.N0.ipcProcess[1].relayAndMux.p0.port 	rmtport-down:last 	48
attr source  count(RMTPort_PassDown)
attr title  "msg passed down, last"
scalar treeBipart.N0.ipcProcess[1].relayAndMux.p0.port 	rmtport-up:last 	48
attr ""  ""
attr source  count(RMTPort_PassUp)
attr title  "msg passed up, last"
scalar treeBipart.N0.ipcProcess[1].relayAndMux.p0.inQ_M 	rmtqueue-drop:last 	-nan
attr source  count(RMTQueue_Drop)
attr title  "dropped PDUs, last"
scalar treeBipart.N0.ipcProcess[1].relayAndMux.p0.outQ_M 	rmtqueue-drop:last 	-nan
attr source  count(RMTQueue_Drop)
attr title  "dropped PDUs, last"
scalar treeBipart.N0.ipcProcess[1].relayAndMux.p0.inQ_0 	rmtqueue-drop:last 	-nan
attr source  count(RMTQueue_Drop)
attr title  "dropped PDUs, last"
scalar treeBipart.N0.ipcProcess[1].relayAndMux.p0.outQ_0 	rmtqueue-drop:last 	-nan
attr source  count(RMTQueue_Drop)
attr title  "dropped PDUs, last"
scalar treeBipart.N0.ipcProcess[2].relayAndMux.p0.port 	rmtport-down:last 	48
attr source  count(RMTPort_PassDown)
attr title  "msg passed down, last"
scalar treeBipart.N0.ipcProcess[2].relayAndMux.p0.port 	rmtport-up:last 	48
attr ""  ""
attr source  count(RMTPort_PassUp)
attr title  "msg passed up, last"
scalar treeBipart.N0.ipcProcess[2].relayAndMux.p0.inQ_M 	rmtqueue-drop:last 	-nan
attr source  count(RMTQueue_Drop)
attr title  "dropped PDUs, last"
scalar treeBipart.N0.ipcProcess[2].relayAndMux.p0.outQ_M 	rmtqueue-drop:last 	-nan
attr source  count(RMTQueue_Drop)
attr title  "dropped PDUs, last"
scalar treeBipart.N0.ipcProcess[2].relayAndMux.p0.inQ_0 	rmtqueue-drop:last 	-nan
attr source  count(RMTQueue_Drop)
attr title  "dropped PDUs, last"
scalar treeBipart.N0.ipcProcess[2].relayAndMux.p0.outQ_0 	rmtqueue-drop:last 	-nan
attr source  count(RMTQueue_Drop)
attr title  "dropped PDUs, last"
scalar treeBipart.N0.ipcProcess[3].relayAndMux.p0.port 	rmtport-down:last 	48
attr source  count(RMTPort_PassDown)
attr title  "msg passed down, last"
scalar treeBipart.N0.ipcProcess[3].relayAndMux.p0.port 	rmtport-up:last 	48
attr ""  ""
attr source  count(RMTPort_PassUp)
attr title  "msg passed up, last"
scalar treeBipart.N0.ipcProcess[3].relayAndMux.p0.inQ_M 	rmtqueue-drop:last 	-nan
attr source  count(RMTQueue_Drop)
attr title  "dropped PDUs, last"
scalar treeBipart.N0.ipcProcess[3].relayAndMux.p0.outQ_M 	rmtqueue-drop:last 	-nan
attr source  count(RMTQueue_Drop)
attr title  "dropped PDUs, last"
scalar treeBipart.N0.ipcProcess[3].relayAndMux.p0.inQ_0 	rmtqueue-drop:last 	-nan
attr source  count(RMTQueue_Drop)
attr title  "dropped PDUs, last"
scalar treeBipart.N0.ipcProcess[3].relayAndMux.p0.outQ_0 	rmtqueue-drop:last 	-nan
attr source  count(RMTQueue_Drop)
attr title  "dropped PDUs, last"
scalar treeBipart.N0.relayIpc.relayAndMux.p0.port 	rmtport-down:last 	24
attr source  count(RMTPort_PassDown)
attr title  "msg passed down, last"
scalar treeBipart.N0.relayIpc.relayAndMux.p0.port 	rmtport-up:last 	24
attr ""  ""
attr source  count(RMTPort_PassUp)
attr title  "msg passed up, last"
scalar treeBipart.N0.relayIpc.relayAndMux.p0.inQ_M 	rmtqueue-drop:last 	-nan
attr source  count(RMTQueue_Drop)
attr title  "dropped PDUs, last"
scalar treeBipart.N0.relayIpc.relayAndMux.p0.outQ_M 	rmtqueue-drop:last 	-nan
attr source  count(RMTQueue_Drop)
attr title  "dropped PDUs, last"
scalar treeBipart.N0.relayIpc.relayAndMux.p0.inQ_0 	rmtqueue-drop:last 	-nan
attr source  count(RMTQueue_Drop)
attr title  "dropped PDUs, last"
scalar treeBipart.N0.relayIpc.relayAndMux.p0.outQ_0 	rmtqueue-drop:last 	-nan
attr source  count(RMTQueue_Drop)
attr title  "dropped PDUs, last"
scalar treeBipart.N0.relayIpc.relayAndMux.p1.port 	rmtport-down:last 	-nan
attr source  count(RMTPort_PassDown)
attr title  "msg passed down, last"
scalar treeBipart.N0.relayIpc.relayAndMux.p1.port 	rmtport-up:last 	-nan
attr ""  ""
attr source  count(RMTPort_PassUp)
attr title  "msg passed up, last"
scalar treeBipart.N0.relayIpc.relayAndMux.p1.inQ_M 	rmtqueue-drop:last 	-nan
attr source  count(RMTQueue_Drop)
attr title  "dropped PDUs, last"
scalar treeBipart.N0.relayIpc.relayAndMux.p1.outQ_M 	rmtqueue-drop:last 	-nan
attr source  count(RMTQueue_Drop)
attr title  "dropped PDUs, last"
scalar treeBipart.N0.relayIpc.relayAndMux.p1.inQ_0 	rmtqueue-drop:last 	-nan
attr source  count(RMTQueue_Drop)
attr title  "dropped PDUs, last"
scalar treeBipart.N0.relayIpc.relayAndMux.p1.outQ_0 	rmtqueue-drop:last 	-nan
attr source  count(RMTQueue_Drop)
attr title  "dropped PDUs, last"
scalar treeBipart.N0.relayIpc.relayAndMux.p2.port 	rmtport-down:last 	-nan
attr source  count(RMTPort_PassDown)
attr title  "msg passed down, last"
scalar treeBipart.N0.relayIpc.relayAndMux.p2.port 	rmtport-up:last 	-nan
attr ""  ""
attr source  count(RMTPort_PassUp)
attr title  "msg passed up, last"
scalar treeBipart.N0.relayIpc.relayAndMux.p2.inQ_M 	rmtqueue-drop:last 	-nan
attr source  count(RMTQueue_Drop)
attr title  "dropped PDUs, last"
scalar treeBipart.N0.relayIpc.relayAndMux.p2.outQ_M 	rmtqueue-drop:last 	-nan
attr source  count(RMTQueue_Drop)
attr title  "dropped PDUs, last"
scalar treeBipart.N0.relayIpc.relayAndMux.p2.inQ_0 	rmtqueue-drop:last 	-nan
attr source  count(RMTQueue_Drop)
attr title  "dropped PDUs, last"
scalar treeBipart.N0.relayIpc.relayAndMux.p2.outQ_0 	rmtqueue-drop:last 	-nan
attr source  count(RMTQueue_Drop)
attr title  "dropped PDUs, last"
scalar treeBipart.N0.relayIpc.relayAndMux.p3.port 	rmtport-down:last 	-nan
attr source  count(RMTPort_PassDown)
attr title  "msg passed down, last"
scalar treeBipart.N0.relayIpc.relayAndMux.p3.port 	rmtport-up:last 	-nan
attr ""  ""
attr source  count(RMTPort_PassUp)
attr title  "msg passed up, last"
scalar treeBipart.N0.relayIpc.relayAndMux.p3.inQ_M 	rmtqueue-drop:last 	-nan
attr source  count(RMTQueue_Drop)
attr title  "dropped PDUs, last"
scalar treeBipart.N0.relayIpc.relayAndMux.p3.outQ_M 	rmtqueue-drop:last 	-nan
attr source  count(RMTQueue_Drop)
attr title  "dropped PDUs, last"
scalar treeBipart.N0.relayIpc.relayAndMux.p3.inQ_0 	rmtqueue-drop:last 	-nan
attr source  count(RMTQueue_Drop)
attr title  "dropped PDUs, last"
scalar treeBipart.N0.relayIpc.relayAndMux.p3.outQ_0 	rmtqueue-drop:last 	-nan
attr source  count(RMTQueue_Drop)
attr title  "dropped PDUs, last"
scalar treeBipart.N0.relayIpc.relayAndMux.p4.port 	rmtport-down:last 	24
attr source  count(RMTPort_PassDown)
attr title  "msg passed down, last"
scalar treeBipart.N0.relayIpc.relayAndMux.p4.port 	rmtport-up:last 	20
attr ""  ""
attr source  count(RMTPort_PassUp)
attr title  "msg passed up, last"
scalar treeBipart.N0.relayIpc.relayAndMux.p4.inQ_M 	rmtqueue-drop:last 	-nan
attr source  count(RMTQueue_Drop)
attr title  "dropped PDUs, last"
scalar treeBipart.N0.relayIpc.relayAndMux.p4.outQ_M 	rmtqueue-drop:last 	-nan
attr source  count(RMTQueue_Drop)
attr title  "dropped PDUs, last"
scalar treeBipart.N0.relayIpc.relayAndMux.p4.inQ_0 	rmtqueue-drop:last 	-nan
attr source  count(RMTQueue_Drop)
attr title  "dropped PDUs, last"
scalar treeBipart.N0.relayIpc.relayAndMux.p4.outQ_0 	rmtqueue-drop:last 	-nan
attr source  count(RMTQueue_Drop)
attr title  "dropped PDUs, last"
scalar treeBipart.N0.relayIpc.relayAndMux.p5.port 	rmtport-down:last 	24
attr source  count(RMTPort_PassDown)
attr title  "msg passed down, last"
scalar treeBipart.N0.relayIpc.relayAndMux.p5.port 	rmtport-up:last 	20
attr ""  ""
attr source  count(RMTPort_PassUp)
attr title  "msg passed up, last"
scalar treeBipart.N0.relayIpc.relayAndMux.p5.inQ_M 	rmtqueue-drop:last 	-nan
attr source  count(RMTQueue_Drop)
attr title  "dropped PDUs, last"
scalar treeBipart.N0.relayIpc.relayAndMux.p5.outQ_M 	rmtqueue-drop:last 	-nan
attr source  count(RMTQueue_Drop)
attr title  "dropped PDUs, last"
scalar treeBipart.N0.relayIpc.relayAndMux.p5.inQ_0 	rmtqueue-drop:last 	-nan
attr source  count(RMTQueue_Drop)
attr title  "dropped PDUs, last"
scalar treeBipart.N0.relayIpc.relayAndMux.p5.outQ_0 	rmtqueue-drop:last 	-nan
attr source  count(RMTQueue_Drop)
attr title  "dropped PDUs, last"
scalar treeBipart.N0.relayIpc.relayAndMux.p6.port 	rmtport-down:last 	24
attr source  count(RMTPort_PassDown)
attr title  "msg passed down, last"
scalar treeBipart.N0.relayIpc.relayAndMux.p6.port 	rmtport-up:last 	20
attr ""  ""
attr source  count(RMTPort_PassUp)
attr title  "msg passed up, last"
scalar treeBipart.N0.relayIpc.relayAndMux.p6.inQ_M 	rmtqueue-drop:last 	-nan
attr source  count(RMTQueue_Drop)
attr title  "dropped PDUs, last"
scalar treeBipart.N0.relayIpc.relayAndMux.p6.outQ_M 	rmtqueue-drop:last 	-nan
attr source  count(RMTQueue_Drop)
attr title  "dropped PDUs, last"
scalar treeBipart.N0.relayIpc.relayAndMux.p6.inQ_0 	rmtqueue-drop:last 	-nan
attr source  count(RMTQueue_Drop)
attr title  "dropped PDUs, last"
scalar treeBipart.N0.relayIpc.relayAndMux.p6.outQ_0 	rmtqueue-drop:last 	-nan
attr source  count(RMTQueue_Drop)
attr title  "dropped PDUs, last"
scalar treeBipart.N0.relayIpc.relayAndMux.p7.port 	rmtport-down:last 	-nan
attr source  count(RMTPort_PassDown)
attr title  "msg passed down, last"
scalar treeBipart.N0.relayIpc.relayAndMux.p7.port 	rmtport-up:last 	-nan
attr ""  ""
attr source  count(RMTPort_PassUp)
attr title  "msg passed up, last"
scalar treeBipart.N0.relayIpc.relayAndMux.p7.inQ_M 	rmtqueue-drop:last 	-nan
attr source  count(RMTQueue_Drop)
attr title  "dropped PDUs, last"
scalar treeBipart.N0.relayIpc.relayAndMux.p7.outQ_M 	rmtqueue-drop:last 	-nan
attr source  count(RMTQueue_Drop)
attr title  "dropped PDUs, last"
scalar treeBipart.N0.relayIpc.relayAndMux.p7.inQ_0 	rmtqueue-drop:last 	-nan
attr source  count(RMTQueue_Drop)
attr title  "dropped PDUs, last"
scalar treeBipart.N0.relayIpc.relayAndMux.p7.outQ_0 	rmtqueue-drop:last 	-nan
attr source  count(RMTQueue_Drop)
attr title  "dropped PDUs, last"
scalar treeBipart.N0.relayIpc.relayAndMux.p8.port 	rmtport-down:last 	-nan
attr source  count(RMTPort_PassDown)
attr title  "msg passed down, last"
scalar treeBipart.N0.relayIpc.relayAndMux.p8.port 	rmtport-up:last 	-nan
attr ""  ""
attr source  count(RMTPort_PassUp)
attr title  "msg passed up, last"
scalar treeBipart.N0.relayIpc.relayAndMux.p8.inQ_M 	rmtqueue-drop:last 	-nan
attr source  count(RMTQueue_Drop)
attr title  "dropped PDUs, last"
scalar treeBipart.N0.relayIpc.relayAndMux.p8.outQ_M 	rmtqueue-drop:last 	-nan
attr source  count(RMTQueue_Drop)
attr title  "dropped PDUs, last"
scalar treeBipart.N0.relayIpc.relayAndMux.p8.inQ_0 	rmtqueue-drop:last 	-nan
attr source  count(RMTQueue_Drop)
attr title  "dropped PDUs, last"
scalar treeBipart.N0.relayIpc.relayAndMux.p8.outQ_0 	rmtqueue-drop:last 	-nan
attr source  count(RMTQueue_Drop)
attr title  "dropped PDUs, last"
scalar treeBipart.N0.relayIpc.relayAndMux.p9.port 	rmtport-down:last 	-nan
attr source  count(RMTPort_PassDown)
attr title  "msg passed down, last"
scalar treeBipart.N0.relayIpc.relayAndMux.p9.port 	rmtport-up:last 	-nan
attr ""  ""
attr source  count(RMTPort_PassUp)
attr title  "msg passed up, last"
scalar treeBipart.N0.relayIpc.relayAndMux.p9.inQ_M 	rmtqueue-drop:last 	-nan
attr source  count(RMTQueue_Drop)
attr title  "dropped PDUs, last"
scalar treeBipart.N0.relayIpc.relayAndMux.p9.outQ_M 	rmtqueue-drop:last 	-nan
attr source  count(RMTQueue_Drop)
attr title  "dropped PDUs, last"
scalar treeBipart.N0.relayIpc.relayAndMux.p9.inQ_0 	rmtqueue-drop:last 	-nan
attr source  count(RMTQueue_Drop)
attr title  "dropped PDUs, last"
scalar treeBipart.N0.relayIpc.relayAndMux.p9.outQ_0 	rmtqueue-drop:last 	-nan
attr source  count(RMTQueue_Drop)
attr title  "dropped PDUs, last"
scalar treeBipart.N0.relayIpc.relayAndMux.p10.port 	rmtport-down:last 	-nan
attr source  count(RMTPort_PassDown)
attr title  "msg passed down, last"
scalar treeBipart.N0.relayIpc.relayAndMux.p10.port 	rmtport-up:last 	-nan
attr ""  ""
attr source  count(RMTPort_PassUp)
attr title  "msg passed up, last"
scalar treeBipart.N0.relayIpc.relayAndMux.p10.inQ_M 	rmtqueue-drop:last 	-nan
attr source  count(RMTQueue_Drop)
attr title  "dropped PDUs, last"
scalar treeBipart.N0.relayIpc.relayAndMux.p10.outQ_M 	rmtqueue-drop:last 	-nan
attr source  count(RMTQueue_Drop)
attr title  "dropped PDUs, last"
scalar treeBipart.N0.relayIpc.relayAndMux.p10.inQ_0 	rmtqueue-drop:last 	-nan
attr source  count(RMTQueue_Drop)
attr title  "dropped PDUs, last"
scalar treeBipart.N0.relayIpc.relayAndMux.p10.outQ_0 	rmtqueue-drop:last 	-nan
attr source  count(RMTQueue_Drop)
attr title  "dropped PDUs, last"
scalar treeBipart.N0.relayIpc.relayAndMux.p11.port 	rmtport-down:last 	-nan
attr source  count(RMTPort_PassDown)
attr title  "msg passed down, last"
scalar treeBipart.N0.relayIpc.relayAndMux.p11.port 	rmtport-up:last 	-nan
attr ""  ""
attr source  count(RMTPort_PassUp)
attr title  "msg passed up, last"
scalar treeBipart.N0.relayIpc.relayAndMux.p11.inQ_M 	rmtqueue-drop:last 	-nan
attr source  count(RMTQueue_Drop)
attr title  "dropped PDUs, last"
scalar treeBipart.N0.relayIpc.relayAndMux.p11.outQ_M 	rmtqueue-drop:last 	-nan
attr source  count(RMTQueue_Drop)
attr title  "dropped PDUs, last"
scalar treeBipart.N0.relayIpc.relayAndMux.p11.inQ_0 	rmtqueue-drop:last 	-nan
attr source  count(RMTQueue_Drop)
attr title  "dropped PDUs, last"
scalar treeBipart.N0.relayIpc.relayAndMux.p11.outQ_0 	rmtqueue-drop:last 	-nan
attr source  count(RMTQueue_Drop)
attr title  "dropped PDUs, last"
scalar treeBipart.N0.relayIpc.relayAndMux.p12.port 	rmtport-down:last 	-nan
attr source  count(RMTPort_PassDown)
attr title  "msg passed down, last"
scalar treeBipart.N0.relayIpc.relayAndMux.p12.port 	rmtport-up:last 	-nan
attr ""  ""
attr source  count(RMTPort_PassUp)
attr title  "msg passed up, last"
scalar treeBipart.N0.relayIpc.relayAndMux.p12.inQ_M 	rmtqueue-drop:last 	-nan
attr source  count(RMTQueue_Drop)
attr title  "dropped PDUs, last"
scalar treeBipart.N0.relayIpc.relayAndMux.p12.outQ_M 	rmtqueue-drop:last 	-nan
attr source  count(RMTQueue_Drop)
attr title  "dropped PDUs, last"
scalar treeBipart.N0.relayIpc.relayAndMux.p12.inQ_0 	rmtqueue-drop:last 	-nan
attr source  count(RMTQueue_Drop)
attr title  "dropped PDUs, last"
scalar treeBipart.N0.relayIpc.relayAndMux.p12.outQ_0 	rmtqueue-drop:last 	-nan
attr source  count(RMTQueue_Drop)
attr title  "dropped PDUs, last"
scalar treeBipart.N0.relayIpc.relayAndMux.p13.port 	rmtport-down:last 	-nan
attr source  count(RMTPort_PassDown)
attr title  "msg passed down, last"
scalar treeBipart.N0.relayIpc.relayAndMux.p13.port 	rmtport-up:last 	-nan
attr ""  ""
attr source  count(RMTPort_PassUp)
attr title  "msg passed up, last"
scalar treeBipart.N0.relayIpc.relayAndMux.p13.inQ_M 	rmtqueue-drop:last 	-nan
attr source  count(RMTQueue_Drop)
attr title  "dropped PDUs, last"
scalar treeBipart.N0.relayIpc.relayAndMux.p13.outQ_M 	rmtqueue-drop:last 	-nan
attr source  count(RMTQueue_Drop)
attr title  "dropped PDUs, last"
scalar treeBipart.N0.relayIpc.relayAndMux.p13.inQ_0 	rmtqueue-drop:last 	-nan
attr source  count(RMTQueue_Drop)
attr title  "dropped PDUs, last"
scalar treeBipart.N0.relayIpc.relayAndMux.p13.outQ_0 	rmtqueue-drop:last 	-nan
attr source  count(RMTQueue_Drop)
attr title  "dropped PDUs, last"
scalar treeBipart.N0.relayIpc.relayAndMux.p14.port 	rmtport-down:last 	-nan
attr source  count(RMTPort_PassDown)
attr title  "msg passed down, last"
scalar treeBipart.N0.relayIpc.relayAndMux.p14.port 	rmtport-up:last 	-nan
attr ""  ""
attr source  count(RMTPort_PassUp)
attr title  "msg passed up, last"
scalar treeBipart.N0.relayIpc.relayAndMux.p14.inQ_M 	rmtqueue-drop:last 	-nan
attr source  count(RMTQueue_Drop)
attr title  "dropped PDUs, last"
scalar treeBipart.N0.relayIpc.relayAndMux.p14.outQ_M 	rmtqueue-drop:last 	-nan
attr source  count(RMTQueue_Drop)
attr title  "dropped PDUs, last"
scalar treeBipart.N0.relayIpc.relayAndMux.p14.inQ_0 	rmtqueue-drop:last 	-nan
attr source  count(RMTQueue_Drop)
attr title  "dropped PDUs, last"
scalar treeBipart.N0.relayIpc.relayAndMux.p14.outQ_0 	rmtqueue-drop:last 	-nan
attr source  count(RMTQueue_Drop)
attr title  "dropped PDUs, last"
scalar treeBipart.N0.relayIpc.relayAndMux.p15.port 	rmtport-down:last 	-nan
attr source  count(RMTPort_PassDown)
attr title  "msg passed down, last"
scalar treeBipart.N0.relayIpc.relayAndMux.p15.port 	rmtport-up:last 	-nan
attr ""  ""
attr source  count(RMTPort_PassUp)
attr title  "msg passed up, last"
scalar treeBipart.N0.relayIpc.relayAndMux.p15.inQ_M 	rmtqueue-drop:last 	-nan
attr source  count(RMTQueue_Drop)
attr title  "dropped PDUs, last"
scalar treeBipart.N0.relayIpc.relayAndMux.p15.outQ_M 	rmtqueue-drop:last 	-nan
attr source  count(RMTQueue_Drop)
attr title  "dropped PDUs, last"
scalar treeBipart.N0.relayIpc.relayAndMux.p15.inQ_0 	rmtqueue-drop:last 	-nan
attr source  count(RMTQueue_Drop)
attr title  "dropped PDUs, last"
scalar treeBipart.N0.relayIpc.relayAndMux.p15.outQ_0 	rmtqueue-drop:last 	-nan
attr source  count(RMTQueue_Drop)
attr title  "dropped PDUs, last"
scalar treeBipart.N0_0.ipcProcess[0].relayAndMux.p0.port 	rmtport-down:last 	48
attr source  count(RMTPort_PassDown)
attr title  "msg passed down, last"
scalar treeBipart.N0_0.ipcProcess[0].relayAndMux.p0.port 	rmtport-up:last 	48
attr ""  ""
attr source  count(RMTPort_PassUp)
attr title  "msg passed up, last"
scalar treeBipart.N0_0.ipcProcess[0].relayAndMux.p0.inQ_M 	rmtqueue-drop:last 	-nan
attr source  count(RMTQueue_Drop)
attr title  "dropped PDUs, last"
scalar treeBipart.N0_0.ipcProcess[0].relayAndMux.p0.outQ_M 	rmtqueue-drop:last 	-nan
attr source  count(RMTQueue_Drop)
attr title  "dropped PDUs, last"
scalar treeBipart.N0_0.ipcProcess[0].relayAndMux.p0.inQ_0 	rmtqueue-drop:last 	-nan
attr source  count(RMTQueue_Drop)
attr title  "dropped PDUs, last"
scalar treeBipart.N0_0.ipcProcess[0].relayAndMux.p0.outQ_0 	rmtqueue-drop:last 	-nan
attr source  count(RMTQueue_Drop)
attr title  "dropped PDUs, last"
scalar treeBipart.N0_0.ipcProcess[1].relayAndMux.p0.port 	rmtport-down:last 	44
attr source  count(RMTPort_PassDown)
attr title  "msg passed down, last"
scalar treeBipart.N0_0.ipcProcess[1].relayAndMux.p0.port 	rmtport-up:last 	44
attr ""  ""
attr source  count(RMTPort_PassUp)
attr title  "msg passed up, last"
scalar treeBipart.N0_0.ipcProcess[1].relayAndMux.p0.inQ_M 	rmtqueue-drop:last 	-nan
attr source  count(RMTQueue_Drop)
attr title  "dropped PDUs, last"
scalar treeBipart.N0_0.ipcProcess[1].relayAndMux.p0.outQ_M 	rmtqueue-drop:last 	-nan
attr source  count(RMTQueue_Drop)
attr title  "dropped PDUs, last"
scalar treeBipart.N0_0.ipcProcess[1].relayAndMux.p0.inQ_0 	rmtqueue-drop:last 	-nan
attr source  count(RMTQueue_Drop)
attr title  "dropped PDUs, last"
scalar treeBipart.N0_0.ipcProcess[1].relayAndMux.p0.outQ_0 	rmtqueue-drop:last 	-nan
attr source  count(RMTQueue_Drop)
attr title  "dropped PDUs, last"
scalar treeBipart.N0_0.ipcProcess[2].relayAndMux.p0.port 	rmtport-down:last 	44
attr source  count(RMTPort_PassDown)
attr title  "msg passed down, last"
scalar treeBipart.N0_0.ipcProcess[2].relayAndMux.p0.port 	rmtport-up:last 	44
attr ""  ""
attr source  count(RMTPort_PassUp)
attr title  "msg passed up, last"
scalar treeBipart.N0_0.ipcProcess[2].relayAndMux.p0.inQ_M 	rmtqueue-drop:last 	-nan
attr source  count(RMTQueue_Drop)
attr title  "dropped PDUs, last"
scalar treeBipart.N0_0.ipcProcess[2].relayAndMux.p0.outQ_M 	rmtqueue-drop:last 	-nan
attr source  count(RMTQueue_Drop)
attr title  "dropped PDUs, last"
scalar treeBipart.N0_0.ipcProcess[2].relayAndMux.p0.inQ_0 	rmtqueue-drop:last 	-nan
attr source  count(RMTQueue_Drop)
attr title  "dropped PDUs, last"
scalar treeBipart.N0_0.ipcProcess[2].relayAndMux.p0.outQ_0 	rmtqueue-drop:last 	-nan
attr source  count(RMTQueue_Drop)
attr title  "dropped PDUs, last"
scalar treeBipart.N0_0.ipcProcess[3].relayAndMux.p0.port 	rmtport-down:last 	44
attr source  count(RMTPort_PassDown)
attr title  "msg passed down, last"
scalar treeBipart.N0_0.ipcProcess[3].relayAndMux.p0.port 	rmtport-up:last 	44
attr ""  ""
attr source  count(RMTPort_PassUp)
attr title  "msg passed up, last"
scalar treeBipart.N0_0.ipcProcess[3].relayAndMux.p0.inQ_M 	rmtqueue-drop:last 	-nan
attr source  count(RMTQueue_Drop)
attr title  "dropped PDUs, last"
scalar treeBipart.N0_0.ipcProcess[3].relayAndMux.p0.outQ_M 	rmtqueue-drop:last 	-nan
attr source  count(RMTQueue_Drop)
attr title  "dropped PDUs, last"
scalar treeBipart.N0_0.ipcProcess[3].relayAndMux.p0.inQ_0 	rmtqueue-drop:last 	-nan
attr source  count(RMTQueue_Drop)
attr title  "dropped PDUs, last"
scalar treeBipart.N0_0.ipcProcess[3].relayAndMux.p0.outQ_0 	rmtqueue-drop:last 	-nan
attr source  count(RMTQueue_Drop)
attr title  "dropped PDUs, last"
scalar treeBipart.N0_0.relayIpc.relayAndMux.p0.port 	rmtport-down:last 	20
attr source  count(RMTPort_PassDown)
attr title  "msg passed down, last"
scalar treeBipart.N0_0.relayIpc.relayAndMux.p0.port 	rmtport-up:last 	24
attr ""  ""
attr source  count(RMTPort_PassUp)
attr title  "msg passed up, last"
scalar treeBipart.N0_0.relayIpc.relayAndMux.p0.inQ_M 	rmtqueue-drop:last 	-nan
attr source  count(RMTQueue_Drop)
attr title  "dropped PDUs, last"
scalar treeBipart.N0_0.relayIpc.relayAndMux.p0.outQ_M 	rmtqueue-drop:last 	-nan
attr source  count(RMTQueue_Drop)
attr title  "dropped PDUs, last"
scalar treeBipart.N0_0.relayIpc.relayAndMux.p0.inQ_0 	rmtqueue-drop:last 	-nan
attr source  count(RMTQueue_Drop)
attr title  "dropped PDUs, last"
scalar treeBipart.N0_0.relayIpc.relayAndMux.p0.outQ_0 	rmtqueue-drop:last 	-nan
attr source  count(RMTQueue_Drop)
attr title  "dropped PDUs, last"
scalar treeBipart.N0_0.relayIpc.relayAndMux.p1.port 	rmtport-down:last 	-nan
attr source  count(RMTPort_PassDown)
attr title  "msg passed down, last"
scalar treeBipart.N0_0.relayIpc.relayAndMux.p1.port 	rmtport-up:last 	-nan
attr ""  ""
attr source  count(RMTPort_PassUp)
attr title  "msg passed up, last"
scalar treeBipart.N0_0.relayIpc.relayAndMux.p1.inQ_M 	rmtqueue-drop:last 	-nan
attr source  count(RMTQueue_Drop)
attr title  "dropped PDUs, last"
scalar treeBipart.N0_0.relayIpc.relayAndMux.p1.outQ_M 	rmtqueue-drop:last 	-nan
attr source  count(RMTQueue_Drop)
attr title  "dropped PDUs, last"
scalar treeBipart.N0_0.relayIpc.relayAndMux.p1.inQ_0 	rmtqueue-drop:last 	-nan
attr source  count(RMTQueue_Drop)
attr title  "dropped PDUs, last"
scalar treeBipart.N0_0.relayIpc.relayAndMux.p1.outQ_0 	rmtqueue-drop:last 	-nan
attr source  count(RMTQueue_Drop)
attr title  "dropped PDUs, last"
scalar treeBipart.N0_0.relayIpc.relayAndMux.p2.port 	rmtport-down:last 	-nan
attr source  count(RMTPort_PassDown)
attr title  "msg passed down, last"
scalar treeBipart.N0_0.relayIpc.relayAndMux.p2.port 	rmtport-up:last 	-nan
attr ""  ""
attr source  count(RMTPort_PassUp)
attr title  "msg passed up, last"
scalar treeBipart.N0_0.relayIpc.relayAndMux.p2.inQ_M 	rmtqueue-drop:last 	-nan
attr source  count(RMTQueue_Drop)
attr title  "dropped PDUs, last"
scalar treeBipart.N0_0.relayIpc.relayAndMux.p2.outQ_M 	rmtqueue-drop:last 	-nan
attr source  count(RMTQueue_Drop)
attr title  "dropped PDUs, last"
scalar treeBipart.N0_0.relayIpc.relayAndMux.p2.inQ_0 	rmtqueue-drop:last 	-nan
attr source  count(RMTQueue_Drop)
attr title  "dropped PDUs, last"
scalar treeBipart.N0_0.relayIpc.relayAndMux.p2.outQ_0 	rmtqueue-drop:last 	-nan
attr source  count(RMTQueue_Drop)
attr title  "dropped PDUs, last"
scalar treeBipart.N0_0.relayIpc.relayAndMux.p3.port 	rmtport-down:last 	-nan
attr source  count(RMTPort_PassDown)
attr title  "msg passed down, last"
scalar treeBipart.N0_0.relayIpc.relayAndMux.p3.port 	rmtport-up:last 	-nan
attr ""  ""
attr source  count(RMTPort_PassUp)
attr title  "msg passed up, last"
scalar treeBipart.N0_0.relayIpc.relayAndMux.p3.inQ_M 	rmtqueue-drop:last 	-nan
attr source  count(RMTQueue_Drop)
attr title  "dropped PDUs, last"
scalar treeBipart.N0_0.relayIpc.relayAndMux.p3.outQ_M 	rmtqueue-drop:last 	-nan
attr source  count(RMTQueue_Drop)
attr title  "dropped PDUs, last"
scalar treeBipart.N0_0.relayIpc.relayAndMux.p3.inQ_0 	rmtqueue-drop:last 	-nan
attr source  count(RMTQueue_Drop)
attr title  "dropped PDUs, last"
scalar treeBipart.N0_0.relayIpc.relayAndMux.p3.outQ_0 	rmtqueue-drop:last 	-nan
attr source  count(RMTQueue_Drop)
attr title  "dropped PDUs, last"
scalar treeBipart.N0_0.relayIpc.relayAndMux.p4.port 	rmtport-down:last 	20
attr source  count(RMTPort_PassDown)
attr title  "msg passed down, last"
scalar treeBipart.N0_0.relayIpc.relayAndMux.p4.port 	rmtport-up:last 	20
attr ""  ""
attr source  count(RMTPort_PassUp)
attr title  "msg passed up, last"
scalar treeBipart.N0_0.relayIpc.relayAndMux.p4.inQ_M 	rmtqueue-drop:last 	-nan
attr source  count(RMTQueue_Drop)
attr title  "dropped PDUs, last"
scalar treeBipart.N0_0.relayIpc.relayAndMux.p4.outQ_M 	rmtqueue-drop:last 	-nan
attr source  count(RMTQueue_Drop)
attr title  "dropped PDUs, last"
scalar treeBipart.N0_0.relayIpc.relayAndMux.p4.inQ_0 	rmtqueue-drop:last 	-nan
attr source  count(RMTQueue_Drop)
attr title  "dropped PDUs, last"
scalar treeBipart.N0_0.relayIpc.relayAndMux.p4.outQ_0 	rmtqueue-drop:last 	-nan
attr source  count(RMTQueue_Drop)
attr title  "dropped PDUs, last"
scalar treeBipart.N0_0.relayIpc.relayAndMux.p5.port 	rmtport-down:last 	20
attr source  count(RMTPort_PassDown)
attr title  "msg passed down, last"
scalar treeBipart.N0_0.relayIpc.relayAndMux.p5.port 	rmtport-up:last 	20
attr ""  ""
attr source  count(RMTPort_PassUp)
attr title  "msg passed up, last"
scalar treeBipart.N0_0.relayIpc.relayAndMux.p5.inQ_M 	rmtqueue-drop:last 	-nan
attr source  count(RMTQueue_Drop)
attr title  "dropped PDUs, last"
scalar treeBipart.N0_0.relayIpc.relayAndMux.p5.outQ_M 	rmtqueue-drop:last 	-nan
attr source  count(RMTQueue_Drop)
attr title  "dropped PDUs, last"
scalar treeBipart.N0_0.relayIpc.relayAndMux.p5.inQ_0 	rmtqueue-drop:last 	-nan
attr source  count(RMTQueue_Drop)
attr title  "dropped PDUs, last"
scalar treeBipart.N0_0.relayIpc.relayAndMux.p5.outQ_0 	rmtqueue-drop:last 	-nan
attr source  count(RMTQueue_Drop)
attr title  "dropped PDUs, last"
scalar treeBipart.N0_0.relayIpc.relayAndMux.p6.port 	rmtport-down:last 	20
attr source  count(RMTPort_PassDown)
attr title  "msg passed down, last"
scalar treeBipart.N0_0.relayIpc.relayAndMux.p6.port 	rmtport-up:last 	20
attr ""  ""
attr source  count(RMTPort_PassUp)
attr title  "msg passed up, last"
scalar treeBipart.N0_0.relayIpc.relayAndMux.p6.inQ_M 	rmtqueue-drop:last 	-nan
attr source  count(RMTQueue_Drop)
attr title  "dropped PDUs, last"
scalar treeBipart.N0_0.relayIpc.relayAndMux.p6.outQ_M 	rmtqueue-drop:last 	-nan
attr source  count(RMTQueue_Drop)
attr title  "dropped PDUs, last"
scalar treeBipart.N0_0.relayIpc.relayAndMux.p6.inQ_0 	rmtqueue-drop:last 	-nan
attr source  count(RMTQueue_Drop)
attr title  "dropped PDUs, last"
scalar treeBipart.N0_0.relayIpc.relayAndMux.p6.outQ_0 	rmtqueue-drop:last 	-nan
attr source  count(RMTQueue_Drop)
attr title  "dropped PDUs, last"
scalar treeBipart.N0_0.relayIpc.relayAndMux.p7.port 	rmtport-down:last 	-nan
attr source  count(RMTPort_PassDown)
attr title  "msg passed down, last"
scalar treeBipart.N0_0.relayIpc.relayAndMux.p7.port 	rmtport-up:last 	-nan
attr ""  ""
attr source  count(RMTPort_PassUp)
attr title  "msg passed up, last"
scalar treeBipart.N0_0.relayIpc.relayAndMux.p7.inQ_M 	rmtqueue-drop:last 	-nan
attr source  count(RMTQueue_Drop)
attr title  "dropped PDUs, last"
scalar treeBipart.N0_0.relayIpc.relayAndMux.p7.outQ_M 	rmtqueue-drop:last 	-nan
attr source  count(RMTQueue_Drop)
attr title  "dropped PDUs, last"
scalar treeBipart.N0_0.relayIpc.relayAndMux.p7.inQ_0 	rmtqueue-drop:last 	-nan
attr source  count(RMTQueue_Drop)
attr title  "dropped PDUs, last"
scalar treeBipart.N0_0.relayIpc.relayAndMux.p7.outQ_0 	rmtqueue-drop:last 	-nan
attr source  count(RMTQueue_Drop)
attr title  "dropped PDUs, last"
scalar treeBipart.N0_0.relayIpc.relayAndMux.p8.port 	rmtport-down:last 	-nan
attr source  count(RMTPort_PassDown)
attr title  "msg passed down, last"
scalar treeBipart.N0_0.relayIpc.relayAndMux.p8.port 	rmtport-up:last 	-nan
attr ""  ""
attr source  count(RMTPort_PassUp)
attr title  "msg passed up, last"
scalar treeBipart.N0_0.relayIpc.relayAndMux.p8.inQ_M 	rmtqueue-drop:last 	-nan
attr source  count(RMTQueue_Drop)
attr title  "dropped PDUs, last"
scalar treeBipart.N0_0.relayIpc.relayAndMux.p8.outQ_M 	rmtqueue-drop:last 	-nan
attr source  count(RMTQueue_Drop)
attr title  "dropped PDUs, last"
scalar treeBipart.N0_0.relayIpc.relayAndMux.p8.inQ_0 	rmtqueue-drop:last 	-nan
attr source  count(RMTQueue_Drop)
attr title  "dropped PDUs, last"
scalar treeBipart.N0_0.relayIpc.relayAndMux.p8.outQ_0 	rmtqueue-drop:last 	-nan
attr source  count(RMTQueue_Drop)
attr title  "dropped PDUs, last"
scalar treeBipart.N0_0.relayIpc.relayAndMux.p9.port 	rmtport-down:last 	-nan
attr source  count(RMTPort_PassDown)
attr title  "msg passed down, last"
scalar treeBipart.N0_0.relayIpc.relayAndMux.p9.port 	rmtport-up:last 	-nan
attr ""  ""
attr source  count(RMTPort_PassUp)
attr title  "msg passed up, last"
scalar treeBipart.N0_0.relayIpc.relayAndMux.p9.inQ_M 	rmtqueue-drop:last 	-nan
attr source  count(RMTQueue_Drop)
attr title  "dropped PDUs, last"
scalar treeBipart.N0_0.relayIpc.relayAndMux.p9.outQ_M 	rmtqueue-drop:last 	-nan
attr source  count(RMTQueue_Drop)
attr title  "dropped PDUs, last"
scalar treeBipart.N0_0.relayIpc.relayAndMux.p9.inQ_0 	rmtqueue-drop:last 	-nan
attr source  count(RMTQueue_Drop)
attr title  "dropped PDUs, last"
scalar treeBipart.N0_0.relayIpc.relayAndMux.p9.outQ_0 	rmtqueue-drop:last 	-nan
attr source  count(RMTQueue_Drop)
attr title  "dropped PDUs, last"
scalar treeBipart.N0_0.relayIpc.relayAndMux.p10.port 	rmtport-down:last 	-nan
attr source  count(RMTPort_PassDown)
attr title  "msg passed down, last"
scalar treeBipart.N0_0.relayIpc.relayAndMux.p10.port 	rmtport-up:last 	-nan
attr ""  ""
attr source  count(RMTPort_PassUp)
attr title  "msg passed up, last"
scalar treeBipart.N0_0.relayIpc.relayAndMux.p10.inQ_M 	rmtqueue-drop:last 	-nan
attr source  count(RMTQueue_Drop)
attr title  "dropped PDUs, last"
scalar treeBipart.N0_0.relayIpc.relayAndMux.p10.outQ_M 	rmtqueue-drop:last 	-nan
attr source  count(RMTQueue_Drop)
attr title  "dropped PDUs, last"
scalar treeBipart.N0_0.relayIpc.relayAndMux.p10.inQ_0 	rmtqueue-drop:last 	-nan
attr source  count(RMTQueue_Drop)
attr title  "dropped PDUs, last"
scalar treeBipart.N0_0.relayIpc.relayAndMux.p10.outQ_0 	rmtqueue-drop:last 	-nan
attr source  count(RMTQueue_Drop)
attr title  "dropped PDUs, last"
scalar treeBipart.N0_0.relayIpc.relayAndMux.p11.port 	rmtport-down:last 	-nan
attr source  count(RMTPort_PassDown)
attr title  "msg passed down, last"
scalar treeBipart.N0_0.relayIpc.relayAndMux.p11.port 	rmtport-up:last 	-nan
attr ""  ""
attr source  count(RMTPort_PassUp)
attr title  "msg passed up, last"
scalar treeBipart.N0_0.relayIpc.relayAndMux.p11.inQ_M 	rmtqueue-drop:last 	-nan
attr source  count(RMTQueue_Drop)
attr title  "dropped PDUs, last"
scalar treeBipart.N0_0.relayIpc.relayAndMux.p11.outQ_M 	rmtqueue-drop:last 	-nan
attr source  count(RMTQueue_Drop)
attr title  "dropped PDUs, last"
scalar treeBipart.N0_0.relayIpc.relayAndMux.p11.inQ_0 	rmtqueue-drop:last 	-nan
attr source  count(RMTQueue_Drop)
attr title  "dropped PDUs, last"
scalar treeBipart.N0_0.relayIpc.relayAndMux.p11.outQ_0 	rmtqueue-drop:last 	-nan
attr source  count(RMTQueue_Drop)
attr title  "dropped PDUs, last"
scalar treeBipart.N0_0.relayIpc.relayAndMux.p12.port 	rmtport-down:last 	-nan
attr source  count(RMTPort_PassDown)
attr title  "msg passed down, last"
scalar treeBipart.N0_0.relayIpc.relayAndMux.p12.port 	rmtport-up:last 	-nan
attr ""  ""
attr source  count(RMTPort_PassUp)
attr title  "msg passed up, last"
scalar treeBipart.N0_0.relayIpc.relayAndMux.p12.inQ_M 	rmtqueue-drop:last 	-nan
attr source  count(RMTQueue_Drop)
attr title  "dropped PDUs, last"
scalar treeBipart.N0_0.relayIpc.relayAndMux.p12.outQ_M 	rmtqueue-drop:last 	-nan
attr source  count(RMTQueue_Drop)
attr title  "dropped PDUs, last"
scalar treeBipart.N0_0.relayIpc.relayAndMux.p12.inQ_0 	rmtqueue-drop:last 	-nan
attr source  count(RMTQueue_Drop)
attr title  "dropped PDUs, last"
scalar treeBipart.N0_0.relayIpc.relayAndMux.p12.outQ_0 	rmtqueue-drop:last 	-nan
attr source  count(RMTQueue_Drop)
attr title  "dropped PDUs, last"
scalar treeBipart.N0_0.relayIpc.relayAndMux.p13.port 	rmtport-down:last 	-nan
attr source  count(RMTPort_PassDown)
attr title  "msg passed down, last"
scalar treeBipart.N0_0.relayIpc.relayAndMux.p13.port 	rmtport-up:last 	-nan
attr ""  ""
attr source  count(RMTPort_PassUp)
attr title  "msg passed up, last"
scalar treeBipart.N0_0.relayIpc.relayAndMux.p13.inQ_M 	rmtqueue-drop:last 	-nan
attr source  count(RMTQueue_Drop)
attr title  "dropped PDUs, last"
scalar treeBipart.N0_0.relayIpc.relayAndMux.p13.outQ_M 	rmtqueue-drop:last 	-nan
attr source  count(RMTQueue_Drop)
attr title  "dropped PDUs, last"
scalar treeBipart.N0_0.relayIpc.relayAndMux.p13.inQ_0 	rmtqueue-drop:last 	-nan
attr source  count(RMTQueue_Drop)
attr title  "dropped PDUs, last"
scalar treeBipart.N0_0.relayIpc.relayAndMux.p13.outQ_0 	rmtqueue-drop:last 	-nan
attr source  count(RMTQueue_Drop)
attr title  "dropped PDUs, last"
scalar treeBipart.N0_0.relayIpc.relayAndMux.p14.port 	rmtport-down:last 	-nan
attr source  count(RMTPort_PassDown)
attr title  "msg passed down, last"
scalar treeBipart.N0_0.relayIpc.relayAndMux.p14.port 	rmtport-up:last 	-nan
attr ""  ""
attr source  count(RMTPort_PassUp)
attr title  "msg passed up, last"
scalar treeBipart.N0_0.relayIpc.relayAndMux.p14.inQ_M 	rmtqueue-drop:last 	-nan
attr source  count(RMTQueue_Drop)
attr title  "dropped PDUs, last"
scalar treeBipart.N0_0.relayIpc.relayAndMux.p14.outQ_M 	rmtqueue-drop:last 	-nan
attr source  count(RMTQueue_Drop)
attr title  "dropped PDUs, last"
scalar treeBipart.N0_0.relayIpc.relayAndMux.p14.inQ_0 	rmtqueue-drop:last 	-nan
attr source  count(RMTQueue_Drop)
attr title  "dropped PDUs, last"
scalar treeBipart.N0_0.relayIpc.relayAndMux.p14.outQ_0 	rmtqueue-drop:last 	-nan
attr source  count(RMTQueue_Drop)
attr title  "dropped PDUs, last"
scalar treeBipart.N0_0.relayIpc.relayAndMux.p15.port 	rmtport-down:last 	-nan
attr source  count(RMTPort_PassDown)
attr title  "msg passed down, last"
scalar treeBipart.N0_0.relayIpc.relayAndMux.p15.port 	rmtport-up:last 	-nan
attr ""  ""
attr source  count(RMTPort_PassUp)
attr title  "msg passed up, last"
scalar treeBipart.N0_0.relayIpc.relayAndMux.p15.inQ_M 	rmtqueue-drop:last 	-nan
attr source  count(RMTQueue_Drop)
attr title  "dropped PDUs, last"
scalar treeBipart.N0_0.relayIpc.relayAndMux.p15.outQ_M 	rmtqueue-drop:last 	-nan
attr source  count(RMTQueue_Drop)
attr title  "dropped PDUs, last"
scalar treeBipart.N0_0.relayIpc.relayAndMux.p15.inQ_0 	rmtqueue-drop:last 	-nan
attr source  count(RMTQueue_Drop)
attr title  "dropped PDUs, last"
scalar treeBipart.N0_0.relayIpc.relayAndMux.p15.outQ_0 	rmtqueue-drop:last 	-nan
attr source  count(RMTQueue_Drop)
attr title  "dropped PDUs, last"
scalar treeBipart.N0_0_0.ipcProcess[0].relayAndMux.p0.port 	rmtport-down:last 	44
attr source  count(RMTPort_PassDown)
attr title  "msg passed down, last"
scalar treeBipart.N0_0_0.ipcProcess[0].relayAndMux.p0.port 	rmtport-up:last 	44
attr ""  ""
attr source  count(RMTPort_PassUp)
attr title  "msg passed up, last"
scalar treeBipart.N0_0_0.ipcProcess[0].relayAndMux.p0.inQ_M 	rmtqueue-drop:last 	-nan
attr source  count(RMTQueue_Drop)
attr title  "dropped PDUs, last"
scalar treeBipart.N0_0_0.ipcProcess[0].relayAndMux.p0.outQ_M 	rmtqueue-drop:last 	-nan
attr source  count(RMTQueue_Drop)
attr title  "dropped PDUs, last"
scalar treeBipart.N0_0_0.ipcProcess[0].relayAndMux.p0.inQ_0 	rmtqueue-drop:last 	-nan
attr source  count(RMTQueue_Drop)
attr title  "dropped PDUs, last"
scalar treeBipart.N0_0_0.ipcProcess[0].relayAndMux.p0.outQ_0 	rmtqueue-drop:last 	-nan
attr source  count(RMTQueue_Drop)
attr title  "dropped PDUs, last"
scalar treeBipart.N0_0_0.ipcProcess[1].relayAndMux.p0.port 	rmtport-down:last 	11
attr source  count(RMTPort_PassDown)
attr title  "msg passed down, last"
scalar treeBipart.N0_0_0.ipcProcess[1].relayAndMux.p0.port 	rmtport-up:last 	11
attr ""  ""
attr source  count(RMTPort_PassUp)
attr title  "msg passed up, last"
scalar treeBipart.N0_0_0.ipcProcess[1].relayAndMux.p0.inQ_M 	rmtqueue-drop:last 	-nan
attr source  count(RMTQueue_Drop)
attr title  "dropped PDUs, last"
scalar treeBipart.N0_0_0.ipcProcess[1].relayAndMux.p0.outQ_M 	rmtqueue-drop:last 	-nan
attr source  count(RMTQueue_Drop)
attr title  "dropped PDUs, last"
scalar treeBipart.N0_0_0.ipcProcess[1].relayAndMux.p0.inQ_0 	rmtqueue-drop:last 	-nan
attr source  count(RMTQueue_Drop)
attr title  "dropped PDUs, last"
scalar treeBipart.N0_0_0.ipcProcess[1].relayAndMux.p0.outQ_0 	rmtqueue-drop:last 	-nan
attr source  count(RMTQueue_Drop)
attr title  "dropped PDUs, last"
scalar treeBipart.N0_0_0.relayIpc.relayAndMux.p0.port 	rmtport-down:last 	20
attr source  count(RMTPort_PassDown)
attr title  "msg passed down, last"
scalar treeBipart.N0_0_0.relayIpc.relayAndMux.p0.port 	rmtport-up:last 	20
attr ""  ""
attr source  count(RMTPort_PassUp)
attr title  "msg passed up, last"
scalar treeBipart.N0_0_0.relayIpc.relayAndMux.p0.inQ_M 	rmtqueue-drop:last 	-nan
attr source  count(RMTQueue_Drop)
attr title  "dropped PDUs, last"
scalar treeBipart.N0_0_0.relayIpc.relayAndMux.p0.outQ_M 	rmtqueue-drop:last 	-nan
attr source  count(RMTQueue_Drop)
attr title  "dropped PDUs, last"
scalar treeBipart.N0_0_0.relayIpc.relayAndMux.p0.inQ_0 	rmtqueue-drop:last 	-nan
attr source  count(RMTQueue_Drop)
attr title  "dropped PDUs, last"
scalar treeBipart.N0_0_0.relayIpc.relayAndMux.p0.outQ_0 	rmtqueue-drop:last 	-nan
attr source  count(RMTQueue_Drop)
attr title  "dropped PDUs, last"
scalar treeBipart.N0_0_0.relayIpc.relayAndMux.p1.port 	rmtport-down:last 	-nan
attr source  count(RMTPort_PassDown)
attr title  "msg passed down, last"
scalar treeBipart.N0_0_0.relayIpc.relayAndMux.p1.port 	rmtport-up:last 	-nan
attr ""  ""
attr source  count(RMTPort_PassUp)
attr title  "msg passed up, last"
scalar treeBipart.N0_0_0.relayIpc.relayAndMux.p1.inQ_M 	rmtqueue-drop:last 	-nan
attr source  count(RMTQueue_Drop)
attr title  "dropped PDUs, last"
scalar treeBipart.N0_0_0.relayIpc.relayAndMux.p1.outQ_M 	rmtqueue-drop:last 	-nan
attr source  count(RMTQueue_Drop)
attr title  "dropped PDUs, last"
scalar treeBipart.N0_0_0.relayIpc.relayAndMux.p1.inQ_0 	rmtqueue-drop:last 	-nan
attr source  count(RMTQueue_Drop)
attr title  "dropped PDUs, last"
scalar treeBipart.N0_0_0.relayIpc.relayAndMux.p1.outQ_0 	rmtqueue-drop:last 	-nan
attr source  count(RMTQueue_Drop)
attr title  "dropped PDUs, last"
scalar treeBipart.N0_0_0.relayIpc.relayAndMux.p2.port 	rmtport-down:last 	-nan
attr source  count(RMTPort_PassDown)
attr title  "msg passed down, last"
scalar treeBipart.N0_0_0.relayIpc.relayAndMux.p2.port 	rmtport-up:last 	-nan
attr ""  ""
attr source  count(RMTPort_PassUp)
attr title  "msg passed up, last"
scalar treeBipart.N0_0_0.relayIpc.relayAndMux.p2.inQ_M 	rmtqueue-drop:last 	-nan
attr source  count(RMTQueue_Drop)
attr title  "dropped PDUs, last"
scalar treeBipart.N0_0_0.relayIpc.relayAndMux.p2.outQ_M 	rmtqueue-drop:last 	-nan
attr source  count(RMTQueue_Drop)
attr title  "dropped PDUs, last"
scalar treeBipart.N0_0_0.relayIpc.relayAndMux.p2.inQ_0 	rmtqueue-drop:last 	-nan
attr source  count(RMTQueue_Drop)
attr title  "dropped PDUs, last"
scalar treeBipart.N0_0_0.relayIpc.relayAndMux.p2.outQ_0 	rmtqueue-drop:last 	-nan
attr source  count(RMTQueue_Drop)
attr title  "dropped PDUs, last"
scalar treeBipart.N0_0_0.relayIpc.relayAndMux.p3.port 	rmtport-down:last 	-nan
attr source  count(RMTPort_PassDown)
attr title  "msg passed down, last"
scalar treeBipart.N0_0_0.relayIpc.relayAndMux.p3.port 	rmtport-up:last 	-nan
attr ""  ""
attr source  count(RMTPort_PassUp)
attr title  "msg passed up, last"
scalar treeBipart.N0_0_0.relayIpc.relayAndMux.p3.inQ_M 	rmtqueue-drop:last 	-nan
attr source  count(RMTQueue_Drop)
attr title  "dropped PDUs, last"
scalar treeBipart.N0_0_0.relayIpc.relayAndMux.p3.outQ_M 	rmtqueue-drop:last 	-nan
attr source  count(RMTQueue_Drop)
attr title  "dropped PDUs, last"
scalar treeBipart.N0_0_0.relayIpc.relayAndMux.p3.inQ_0 	rmtqueue-drop:last 	-nan
attr source  count(RMTQueue_Drop)
attr title  "dropped PDUs, last"
scalar treeBipart.N0_0_0.relayIpc.relayAndMux.p3.outQ_0 	rmtqueue-drop:last 	-nan
attr source  count(RMTQueue_Drop)
attr title  "dropped PDUs, last"
scalar treeBipart.N0_0_0.relayIpc.relayAndMux.p4.port 	rmtport-down:last 	5
attr source  count(RMTPort_PassDown)
attr title  "msg passed down, last"
scalar treeBipart.N0_0_0.relayIpc.relayAndMux.p4.port 	rmtport-up:last 	5
attr ""  ""
attr source  count(RMTPort_PassUp)
attr title  "msg passed up, last"
scalar treeBipart.N0_0_0.relayIpc.relayAndMux.p4.inQ_M 	rmtqueue-drop:last 	-nan
attr source  count(RMTQueue_Drop)
attr title  "dropped PDUs, last"
scalar treeBipart.N0_0_0.relayIpc.relayAndMux.p4.outQ_M 	rmtqueue-drop:last 	-nan
attr source  count(RMTQueue_Drop)
attr title  "dropped PDUs, last"
scalar treeBipart.N0_0_0.relayIpc.relayAndMux.p4.inQ_0 	rmtqueue-drop:last 	-nan
attr source  count(RMTQueue_Drop)
attr title  "dropped PDUs, last"
scalar treeBipart.N0_0_0.relayIpc.relayAndMux.p4.outQ_0 	rmtqueue-drop:last 	-nan
attr source  count(RMTQueue_Drop)
attr title  "dropped PDUs, last"
scalar treeBipart.S0_0_0.ipcProcess0.relayAndMux.p0.port 	rmtport-down:last 	11
attr source  count(RMTPort_PassDown)
attr title  "msg passed down, last"
scalar treeBipart.S0_0_0.ipcProcess0.relayAndMux.p0.port 	rmtport-up:last 	11
attr ""  ""
attr source  count(RMTPort_PassUp)
attr title  "msg passed up, last"
scalar treeBipart.S0_0_0.ipcProcess0.relayAndMux.p0.inQ_M 	rmtqueue-drop:last 	-nan
attr source  count(RMTQueue_Drop)
attr title  "dropped PDUs, last"
scalar treeBipart.S0_0_0.ipcProcess0.relayAndMux.p0.outQ_M 	rmtqueue-drop:last 	-nan
attr source  count(RMTQueue_Drop)
attr title  "dropped PDUs, last"
scalar treeBipart.S0_0_0.ipcProcess0.relayAndMux.p0.inQ_0 	rmtqueue-drop:last 	-nan
attr source  count(RMTQueue_Drop)
attr title  "dropped PDUs, last"
scalar treeBipart.S0_0_0.ipcProcess0.relayAndMux.p0.outQ_0 	rmtqueue-drop:last 	-nan
attr source  count(RMTQueue_Drop)
attr title  "dropped PDUs, last"
scalar treeBipart.S0_0_0.ipcProcess1.relayAndMux.p0.port 	rmtport-down:last 	5
attr source  count(RMTPort_PassDown)
attr title  "msg passed down, last"
scalar treeBipart.S0_0_0.ipcProcess1.relayAndMux.p0.port 	rmtport-up:last 	5
attr ""  ""
attr source  count(RMTPort_PassUp)
attr title  "msg passed up, last"
scalar treeBipart.S0_0_0.ipcProcess1.relayAndMux.p0.inQ_M 	rmtqueue-drop:last 	-nan
attr source  count(RMTQueue_Drop)
attr title  "dropped PDUs, last"
scalar treeBipart.S0_0_0.ipcProcess1.relayAndMux.p0.outQ_M 	rmtqueue-drop:last 	-nan
attr source  count(RMTQueue_Drop)
attr title  "dropped PDUs, last"
scalar treeBipart.S0_0_0.ipcProcess1.relayAndMux.p0.inQ_0 	rmtqueue-drop:last 	-nan
attr source  count(RMTQueue_Drop)
attr title  "dropped PDUs, last"
scalar treeBipart.S0_0_0.ipcProcess1.relayAndMux.p0.outQ_0 	rmtqueue-drop:last 	-nan
attr source  count(RMTQueue_Drop)
attr title  "dropped PDUs, last"
scalar treeBipart.S0_0_0.ipcResourceManager.irm 	irm-down:last 	-nan
attr source  count(IRM_PassDown)
attr title  "msg passed down, last"
scalar treeBipart.S0_0_0.ipcResourceManager.irm 	irm-up:last 	-nan
attr source  count(IRM_PassUp)
attr title  "msg passed up, last"
scalar treeBipart.N0_0_1.ipcProcess[0].relayAndMux.p0.port 	rmtport-down:last 	44
attr source  count(RMTPort_PassDown)
attr title  "msg passed down, last"
scalar treeBipart.N0_0_1.ipcProcess[0].relayAndMux.p0.port 	rmtport-up:last 	44
attr ""  ""
attr source  count(RMTPort_PassUp)
attr title  "msg passed up, last"
scalar treeBipart.N0_0_1.ipcProcess[0].relayAndMux.p0.inQ_M 	rmtqueue-drop:last 	-nan
attr source  count(RMTQueue_Drop)
attr title  "dropped PDUs, last"
scalar treeBipart.N0_0_1.ipcProcess[0].relayAndMux.p0.outQ_M 	rmtqueue-drop:last 	-nan
attr source  count(RMTQueue_Drop)
attr title  "dropped PDUs, last"
scalar treeBipart.N0_0_1.ipcProcess[0].relayAndMux.p0.inQ_0 	rmtqueue-drop:last 	-nan
attr source  count(RMTQueue_Drop)
attr title  "dropped PDUs, last"
scalar treeBipart.N0_0_1.ipcProcess[0].relayAndMux.p0.outQ_0 	rmtqueue-drop:last 	-nan
attr source  count(RMTQueue_Drop)
attr title  "dropped PDUs, last"
scalar treeBipart.N0_0_1.ipcProcess[1].relayAndMux.p0.port 	rmtport-down:last 	11
attr source  count(RMTPort_PassDown)
attr title  "msg passed down, last"
scalar treeBipart.N0_0_1.ipcProcess[1].relayAndMux.p0.port 	rmtport-up:last 	11
attr ""  ""
attr source  count(RMTPort_PassUp)
attr title  "msg passed up, last"
scalar treeBipart.N0_0_1.ipcProcess[1].relayAndMux.p0.inQ_M 	rmtqueue-drop:last 	-nan
attr source  count(RMTQueue_Drop)
attr title  "dropped PDUs, last"
scalar treeBipart.N0_0_1.ipcProcess[1].relayAndMux.p0.outQ_M 	rmtqueue-drop:last 	-nan
attr source  count(RMTQueue_Drop)
attr title  "dropped PDUs, last"
scalar treeBipart.N0_0_1.ipcProcess[1].relayAndMux.p0.inQ_0 	rmtqueue-drop:last 	-nan
attr source  count(RMTQueue_Drop)
attr title  "dropped PDUs, last"
scalar treeBipart.N0_0_1.ipcProcess[1].relayAndMux.p0.outQ_0 	rmtqueue-drop:last 	-nan
attr source  count(RMTQueue_Drop)
attr title  "dropped PDUs, last"
scalar treeBipart.N0_0_1.relayIpc.relayAndMux.p0.port 	rmtport-down:last 	20
attr source  count(RMTPort_PassDown)
attr title  "msg passed down, last"
scalar treeBipart.N0_0_1.relayIpc.relayAndMux.p0.port 	rmtport-up:last 	20
attr ""  ""
attr source  count(RMTPort_PassUp)
attr title  "msg passed up, last"
scalar treeBipart.N0_0_1.relayIpc.relayAndMux.p0.inQ_M 	rmtqueue-drop:last 	-nan
attr source  count(RMTQueue_Drop)
attr title  "dropped PDUs, last"
scalar treeBipart.N0_0_1.relayIpc.relayAndMux.p0.outQ_M 	rmtqueue-drop:last 	-nan
attr source  count(RMTQueue_Drop)
attr title  "dropped PDUs, last"
scalar treeBipart.N0_0_1.relayIpc.relayAndMux.p0.inQ_0 	rmtqueue-drop:last 	-nan
attr source  count(RMTQueue_Drop)
attr title  "dropped PDUs, last"
scalar treeBipart.N0_0_1.relayIpc.relayAndMux.p0.outQ_0 	rmtqueue-drop:last 	-nan
attr source  count(RMTQueue_Drop)
attr title  "dropped PDUs, last"
scalar treeBipart.N0_0_1.relayIpc.relayAndMux.p1.port 	rmtport-down:last 	-nan
attr source  count(RMTPort_PassDown)
attr title  "msg passed down, last"
scalar treeBipart.N0_0_1.relayIpc.relayAndMux.p1.port 	rmtport-up:last 	-nan
attr ""  ""
attr source  count(RMTPort_PassUp)
attr title  "msg passed up, last"
scalar treeBipart.N0_0_1.relayIpc.relayAndMux.p1.inQ_M 	rmtqueue-drop:last 	-nan
attr source  count(RMTQueue_Drop)
attr title  "dropped PDUs, last"
scalar treeBipart.N0_0_1.relayIpc.relayAndMux.p1.outQ_M 	rmtqueue-drop:last 	-nan
attr source  count(RMTQueue_Drop)
attr title  "dropped PDUs, last"
scalar treeBipart.N0_0_1.relayIpc.relayAndMux.p1.inQ_0 	rmtqueue-drop:last 	-nan
attr source  count(RMTQueue_Drop)
attr title  "dropped PDUs, last"
scalar treeBipart.N0_0_1.relayIpc.relayAndMux.p1.outQ_0 	rmtqueue-drop:last 	-nan
attr source  count(RMTQueue_Drop)
attr title  "dropped PDUs, last"
scalar treeBipart.N0_0_1.relayIpc.relayAndMux.p2.port 	rmtport-down:last 	-nan
attr source  count(RMTPort_PassDown)
attr title  "msg passed down, last"
scalar treeBipart.N0_0_1.relayIpc.relayAndMux.p2.port 	rmtport-up:last 	-nan
attr ""  ""
attr source  count(RMTPort_PassUp)
attr title  "msg passed up, last"
scalar treeBipart.N0_0_1.relayIpc.relayAndMux.p2.inQ_M 	rmtqueue-drop:last 	-nan
attr source  count(RMTQueue_Drop)
attr title  "dropped PDUs, last"
scalar treeBipart.N0_0_1.relayIpc.relayAndMux.p2.outQ_M 	rmtqueue-drop:last 	-nan
attr source  count(RMTQueue_Drop)
attr title  "dropped PDUs, last"
scalar treeBipart.N0_0_1.relayIpc.relayAndMux.p2.inQ_0 	rmtqueue-drop:last 	-nan
attr source  count(RMTQueue_Drop)
attr title  "dropped PDUs, last"
scalar treeBipart.N0_0_1.relayIpc.relayAndMux.p2.outQ_0 	rmtqueue-drop:last 	-nan
attr source  count(RMTQueue_Drop)
attr title  "dropped PDUs, last"
scalar treeBipart.N0_0_1.relayIpc.relayAndMux.p3.port 	rmtport-down:last 	-nan
attr source  count(RMTPort_PassDown)
attr title  "msg passed down, last"
scalar treeBipart.N0_0_1.relayIpc.relayAndMux.p3.port 	rmtport-up:last 	-nan
attr ""  ""
attr source  count(RMTPort_PassUp)
attr title  "msg passed up, last"
scalar treeBipart.N0_0_1.relayIpc.relayAndMux.p3.inQ_M 	rmtqueue-drop:last 	-nan
attr source  count(RMTQueue_Drop)
attr title  "dropped PDUs, last"
scalar treeBipart.N0_0_1.relayIpc.relayAndMux.p3.outQ_M 	rmtqueue-drop:last 	-nan
attr source  count(RMTQueue_Drop)
attr title  "dropped PDUs, last"
scalar treeBipart.N0_0_1.relayIpc.relayAndMux.p3.inQ_0 	rmtqueue-drop:last 	-nan
attr source  count(RMTQueue_Drop)
attr title  "dropped PDUs, last"
scalar treeBipart.N0_0_1.relayIpc.relayAndMux.p3.outQ_0 	rmtqueue-drop:last 	-nan
attr source  count(RMTQueue_Drop)
attr title  "dropped PDUs, last"
scalar treeBipart.N0_0_1.relayIpc.relayAndMux.p4.port 	rmtport-down:last 	5
attr source  count(RMTPort_PassDown)
attr title  "msg passed down, last"
scalar treeBipart.N0_0_1.relayIpc.relayAndMux.p4.port 	rmtport-up:last 	5
attr ""  ""
attr source  count(RMTPort_PassUp)
attr title  "msg passed up, last"
scalar treeBipart.N0_0_1.relayIpc.relayAndMux.p4.inQ_M 	rmtqueue-drop:last 	-nan
attr source  count(RMTQueue_Drop)
attr title  "dropped PDUs, last"
scalar treeBipart.N0_0_1.relayIpc.relayAndMux.p4.outQ_M 	rmtqueue-drop:last 	-nan
attr source  count(RMTQueue_Drop)
attr title  "dropped PDUs, last"
scalar treeBipart.N0_0_1.relayIpc.relayAndMux.p4.inQ_0 	rmtqueue-drop:last 	-nan
attr source  count(RMTQueue_Drop)
attr title  "dropped PDUs, last"
scalar treeBipart.N0_0_1.relayIpc.relayAndMux.p4.outQ_0 	rmtqueue-drop:last 	-nan
attr source  count(RMTQueue_Drop)
attr title  "dropped PDUs, last"
scalar treeBipart.S0_0_1.ipcProcess0.relayAndMux.p0.port 	rmtport-down:last 	11
attr source  count(RMTPort_PassDown)
attr title  "msg passed down, last"
scalar treeBipart.S0_0_1.ipcProcess0.relayAndMux.p0.port 	rmtport-up:last 	11
attr ""  ""
attr source  count(RMTPort_PassUp)
attr title  "msg passed up, last"
scalar treeBipart.S0_0_1.ipcProcess0.relayAndMux.p0.inQ_M 	rmtqueue-drop:last 	-nan
attr source  count(RMTQueue_Drop)
attr title  "dropped PDUs, last"
scalar treeBipart.S0_0_1.ipcProcess0.relayAndMux.p0.outQ_M 	rmtqueue-drop:last 	-nan
attr source  count(RMTQueue_Drop)
attr title  "dropped PDUs, last"
scalar treeBipart.S0_0_1.ipcProcess0.relayAndMux.p0.inQ_0 	rmtqueue-drop:last 	-nan
attr source  count(RMTQueue_Drop)
attr title  "dropped PDUs, last"
scalar treeBipart.S0_0_1.ipcProcess0.relayAndMux.p0.outQ_0 	rmtqueue-drop:last 	-nan
attr source  count(RMTQueue_Drop)
attr title  "dropped PDUs, last"
scalar treeBipart.S0_0_1.ipcProcess1.relayAndMux.p0.port 	rmtport-down:last 	5
attr source  count(RMTPort_PassDown)
attr title  "msg passed down, last"
scalar treeBipart.S0_0_1.ipcProcess1.relayAndMux.p0.port 	rmtport-up:last 	5
attr ""  ""
attr source  count(RMTPort_PassUp)
attr title  "msg passed up, last"
scalar treeBipart.S0_0_1.ipcProcess1.relayAndMux.p0.inQ_M 	rmtqueue-drop:last 	-nan
attr source  count(RMTQueue_Drop)
attr title  "dropped PDUs, last"
scalar treeBipart.S0_0_1.ipcProcess1.relayAndMux.p0.outQ_M 	rmtqueue-drop:last 	-nan
attr source  count(RMTQueue_Drop)
attr title  "dropped PDUs, last"
scalar treeBipart.S0_0_1.ipcProcess1.relayAndMux.p0.inQ_0 	rmtqueue-drop:last 	-nan
attr source  count(RMTQueue_Drop)
attr title  "dropped PDUs, last"
scalar treeBipart.S0_0_1.ipcProcess1.relayAndMux.p0.outQ_0 	rmtqueue-drop:last 	-nan
attr source  count(RMTQueue_Drop)
attr title  "dropped PDUs, last"
scalar treeBipart.S0_0_1.ipcResourceManager.irm 	irm-down:last 	-nan
attr source  count(IRM_PassDown)
attr title  "msg passed down, last"
scalar treeBipart.S0_0_1.ipcResourceManager.irm 	irm-up:last 	-nan
attr source  count(IRM_PassUp)
attr title  "msg passed up, last"
scalar treeBipart.N0_0_2.ipcProcess[0].relayAndMux.p0.port 	rmtport-down:last 	44
attr source  count(RMTPort_PassDown)
attr title  "msg passed down, last"
scalar treeBipart.N0_0_2.ipcProcess[0].relayAndMux.p0.port 	rmtport-up:last 	44
attr ""  ""
attr source  count(RMTPort_PassUp)
attr title  "msg passed up, last"
scalar treeBipart.N0_0_2.ipcProcess[0].relayAndMux.p0.inQ_M 	rmtqueue-drop:last 	-nan
attr source  count(RMTQueue_Drop)
attr title  "dropped PDUs, last"
scalar treeBipart.N0_0_2.ipcProcess[0].relayAndMux.p0.outQ_M 	rmtqueue-drop:last 	-nan
attr source  count(RMTQueue_Drop)
attr title  "dropped PDUs, last"
scalar treeBipart.N0_0_2.ipcProcess[0].relayAndMux.p0.inQ_0 	rmtqueue-drop:last 	-nan
attr source  count(RMTQueue_Drop)
attr title  "dropped PDUs, last"
scalar treeBipart.N0_0_2.ipcProcess[0].relayAndMux.p0.outQ_0 	rmtqueue-drop:last 	-nan
attr source  count(RMTQueue_Drop)
attr title  "dropped PDUs, last"
scalar treeBipart.N0_0_2.ipcProcess[1].relayAndMux.p0.port 	rmtport-down:last 	11
attr source  count(RMTPort_PassDown)
attr title  "msg passed down, last"
scalar treeBipart.N0_0_2.ipcProcess[1].relayAndMux.p0.port 	rmtport-up:last 	11
attr ""  ""
attr source  count(RMTPort_PassUp)
attr title  "msg passed up, last"
scalar treeBipart.N0_0_2.ipcProcess[1].relayAndMux.p0.inQ_M 	rmtqueue-drop:last 	-nan
attr source  count(RMTQueue_Drop)
attr title  "dropped PDUs, last"
scalar treeBipart.N0_0_2.ipcProcess[1].relayAndMux.p0.outQ_M 	rmtqueue-drop:last 	-nan
attr source  count(RMTQueue_Drop)
attr title  "dropped PDUs, last"
scalar treeBipart.N0_0_2.ipcProcess[1].relayAndMux.p0.inQ_0 	rmtqueue-drop:last 	-nan
attr source  count(RMTQueue_Drop)
attr title  "dropped PDUs, last"
scalar treeBipart.N0_0_2.ipcProcess[1].relayAndMux.p0.outQ_0 	rmtqueue-drop:last 	-nan
attr source  count(RMTQueue_Drop)
attr title  "dropped PDUs, last"
scalar treeBipart.N0_0_2.relayIpc.relayAndMux.p0.port 	rmtport-down:last 	20
attr source  count(RMTPort_PassDown)
attr title  "msg passed down, last"
scalar treeBipart.N0_0_2.relayIpc.relayAndMux.p0.port 	rmtport-up:last 	20
attr ""  ""
attr source  count(RMTPort_PassUp)
attr title  "msg passed up, last"
scalar treeBipart.N0_0_2.relayIpc.relayAndMux.p0.inQ_M 	rmtqueue-drop:last 	-nan
attr source  count(RMTQueue_Drop)
attr title  "dropped PDUs, last"
scalar treeBipart.N0_0_2.relayIpc.relayAndMux.p0.outQ_M 	rmtqueue-drop:last 	-nan
attr source  count(RMTQueue_Drop)
attr title  "dropped PDUs, last"
scalar treeBipart.N0_0_2.relayIpc.relayAndMux.p0.inQ_0 	rmtqueue-drop:last 	-nan
attr source  count(RMTQueue_Drop)
attr title  "dropped PDUs, last"
scalar treeBipart.N0_0_2.relayIpc.relayAndMux.p0.outQ_0 	rmtqueue-drop:last 	-nan
attr source  count(RMTQueue_Drop)
attr title  "dropped PDUs, last"
scalar treeBipart.N0_0_2.relayIpc.relayAndMux.p1.port 	rmtport-down:last 	-nan
attr source  count(RMTPort_PassDown)
attr title  "msg passed down, last"
scalar treeBipart.N0_0_2.relayIpc.relayAndMux.p1.port 	rmtport-up:last 	-nan
attr ""  ""
attr source  count(RMTPort_PassUp)
attr title  "msg passed up, last"
scalar treeBipart.N0_0_2.relayIpc.relayAndMux.p1.inQ_M 	rmtqueue-drop:last 	-nan
attr source  count(RMTQueue_Drop)
attr title  "dropped PDUs, last"
scalar treeBipart.N0_0_2.relayIpc.relayAndMux.p1.outQ_M 	rmtqueue-drop:last 	-nan
attr source  count(RMTQueue_Drop)
attr title  "dropped PDUs, last"
scalar treeBipart.N0_0_2.relayIpc.relayAndMux.p1.inQ_0 	rmtqueue-drop:last 	-nan
attr source  count(RMTQueue_Drop)
attr title  "dropped PDUs, last"
scalar treeBipart.N0_0_2.relayIpc.relayAndMux.p1.outQ_0 	rmtqueue-drop:last 	-nan
attr source  count(RMTQueue_Drop)
attr title  "dropped PDUs, last"
scalar treeBipart.N0_0_2.relayIpc.relayAndMux.p2.port 	rmtport-down:last 	-nan
attr source  count(RMTPort_PassDown)
attr title  "msg passed down, last"
scalar treeBipart.N0_0_2.relayIpc.relayAndMux.p2.port 	rmtport-up:last 	-nan
attr ""  ""
attr source  count(RMTPort_PassUp)
attr title  "msg passed up, last"
scalar treeBipart.N0_0_2.relayIpc.relayAndMux.p2.inQ_M 	rmtqueue-drop:last 	-nan
attr source  count(RMTQueue_Drop)
attr title  "dropped PDUs, last"
scalar treeBipart.N0_0_2.relayIpc.relayAndMux.p2.outQ_M 	rmtqueue-drop:last 	-nan
attr source  count(RMTQueue_Drop)
attr title  "dropped PDUs, last"
scalar treeBipart.N0_0_2.relayIpc.relayAndMux.p2.inQ_0 	rmtqueue-drop:last 	-nan
attr source  count(RMTQueue_Drop)
attr title  "dropped PDUs, last"
scalar treeBipart.N0_0_2.relayIpc.relayAndMux.p2.outQ_0 	rmtqueue-drop:last 	-nan
attr source  count(RMTQueue_Drop)
attr title  "dropped PDUs, last"
scalar treeBipart.N0_0_2.relayIpc.relayAndMux.p3.port 	rmtport-down:last 	-nan
attr source  count(RMTPort_PassDown)
attr title  "msg passed down, last"
scalar treeBipart.N0_0_2.relayIpc.relayAndMux.p3.port 	rmtport-up:last 	-nan
attr ""  ""
attr source  count(RMTPort_PassUp)
attr title  "msg passed up, last"
scalar treeBipart.N0_0_2.relayIpc.relayAndMux.p3.inQ_M 	rmtqueue-drop:last 	-nan
attr source  count(RMTQueue_Drop)
attr title  "dropped PDUs, last"
scalar treeBipart.N0_0_2.relayIpc.relayAndMux.p3.outQ_M 	rmtqueue-drop:last 	-nan
attr source  count(RMTQueue_Drop)
attr title  "dropped PDUs, last"
scalar treeBipart.N0_0_2.relayIpc.relayAndMux.p3.inQ_0 	rmtqueue-drop:last 	-nan
attr source  count(RMTQueue_Drop)
attr title  "dropped PDUs, last"
scalar treeBipart.N0_0_2.relayIpc.relayAndMux.p3.outQ_0 	rmtqueue-drop:last 	-nan
attr source  count(RMTQueue_Drop)
attr title  "dropped PDUs, last"
scalar treeBipart.N0_0_2.relayIpc.relayAndMux.p4.port 	rmtport-down:last 	5
attr source  count(RMTPort_PassDown)
attr title  "msg passed down, last"
scalar treeBipart.N0_0_2.relayIpc.relayAndMux.p4.port 	rmtport-up:last 	5
attr ""  ""
attr source  count(RMTPort_PassUp)
attr title  "msg passed up, last"
scalar treeBipart.N0_0_2.relayIpc.relayAndMux.p4.inQ_M 	rmtqueue-drop:last 	-nan
attr source  count(RMTQueue_Drop)
attr title  "dropped PDUs, last"
scalar treeBipart.N0_0_2.relayIpc.relayAndMux.p4.outQ_M 	rmtqueue-drop:last 	-nan
attr source  count(RMTQueue_Drop)
attr title  "dropped PDUs, last"
scalar treeBipart.N0_0_2.relayIpc.relayAndMux.p4.inQ_0 	rmtqueue-drop:last 	-nan
attr source  count(RMTQueue_Drop)
attr title  "dropped PDUs, last"
scalar treeBipart.N0_0_2.relayIpc.relayAndMux.p4.outQ_0 	rmtqueue-drop:last 	-nan
attr source  count(RMTQueue_Drop)
attr title  "dropped PDUs, last"
scalar treeBipart.S0_0_2.ipcProcess0.relayAndMux.p0.port 	rmtport-down:last 	11
attr source  count(RMTPort_PassDown)
attr title  "msg passed down, last"
scalar treeBipart.S0_0_2.ipcProcess0.relayAndMux.p0.port 	rmtport-up:last 	11
attr ""  ""
attr source  count(RMTPort_PassUp)
attr title  "msg passed up, last"
scalar treeBipart.S0_0_2.ipcProcess0.relayAndMux.p0.inQ_M 	rmtqueue-drop:last 	-nan
attr source  count(RMTQueue_Drop)
attr title  "dropped PDUs, last"
scalar treeBipart.S0_0_2.ipcProcess0.relayAndMux.p0.outQ_M 	rmtqueue-drop:last 	-nan
attr source  count(RMTQueue_Drop)
attr title  "dropped PDUs, last"
scalar treeBipart.S0_0_2.ipcProcess0.relayAndMux.p0.inQ_0 	rmtqueue-drop:last 	-nan
attr source  count(RMTQueue_Drop)
attr title  "dropped PDUs, last"
scalar treeBipart.S0_0_2.ipcProcess0.relayAndMux.p0.outQ_0 	rmtqueue-drop:last 	-nan
attr source  count(RMTQueue_Drop)
attr title  "dropped PDUs, last"
scalar treeBipart.S0_0_2.ipcProcess1.relayAndMux.p0.port 	rmtport-down:last 	5
attr source  count(RMTPort_PassDown)
attr title  "msg passed down, last"
scalar treeBipart.S0_0_2.ipcProcess1.relayAndMux.p0.port 	rmtport-up:last 	5
attr ""  ""
attr source  count(RMTPort_PassUp)
attr title  "msg passed up, last"
scalar treeBipart.S0_0_2.ipcProcess1.relayAndMux.p0.inQ_M 	rmtqueue-drop:last 	-nan
attr source  count(RMTQueue_Drop)
attr title  "dropped PDUs, last"
scalar treeBipart.S0_0_2.ipcProcess1.relayAndMux.p0.outQ_M 	rmtqueue-drop:last 	-nan
attr source  count(RMTQueue_Drop)
attr title  "dropped PDUs, last"
scalar treeBipart.S0_0_2.ipcProcess1.relayAndMux.p0.inQ_0 	rmtqueue-drop:last 	-nan
attr source  count(RMTQueue_Drop)
attr title  "dropped PDUs, last"
scalar treeBipart.S0_0_2.ipcProcess1.relayAndMux.p0.outQ_0 	rmtqueue-drop:last 	-nan
attr source  count(RMTQueue_Drop)
attr title  "dropped PDUs, last"
scalar treeBipart.S0_0_2.ipcResourceManager.irm 	irm-down:last 	-nan
attr source  count(IRM_PassDown)
attr title  "msg passed down, last"
scalar treeBipart.S0_0_2.ipcResourceManager.irm 	irm-up:last 	-nan
attr source  count(IRM_PassUp)
attr title  "msg passed up, last"
scalar treeBipart.N0_1.ipcProcess[0].relayAndMux.p0.port 	rmtport-down:last 	48
attr source  count(RMTPort_PassDown)
attr title  "msg passed down, last"
scalar treeBipart.N0_1.ipcProcess[0].relayAndMux.p0.port 	rmtport-up:last 	48
attr ""  ""
attr source  count(RMTPort_PassUp)
attr title  "msg passed up, last"
scalar treeBipart.N0_1.ipcProcess[0].relayAndMux.p0.inQ_M 	rmtqueue-drop:last 	-nan
attr source  count(RMTQueue_Drop)
attr title  "dropped PDUs, last"
scalar treeBipart.N0_1.ipcProcess[0].relayAndMux.p0.outQ_M 	rmtqueue-drop:last 	-nan
attr source  count(RMTQueue_Drop)
attr title  "dropped PDUs, last"
scalar treeBipart.N0_1.ipcProcess[0].relayAndMux.p0.inQ_0 	rmtqueue-drop:last 	-nan
attr source  count(RMTQueue_Drop)
attr title  "dropped PDUs, last"
scalar treeBipart.N0_1.ipcProcess[0].relayAndMux.p0.outQ_0 	rmtqueue-drop:last 	-nan
attr source  count(RMTQueue_Drop)
attr title  "dropped PDUs, last"
scalar treeBipart.N0_1.ipcProcess[1].relayAndMux.p0.port 	rmtport-down:last 	44
attr source  count(RMTPort_PassDown)
attr title  "msg passed down, last"
scalar treeBipart.N0_1.ipcProcess[1].relayAndMux.p0.port 	rmtport-up:last 	44
attr ""  ""
attr source  count(RMTPort_PassUp)
attr title  "msg passed up, last"
scalar treeBipart.N0_1.ipcProcess[1].relayAndMux.p0.inQ_M 	rmtqueue-drop:last 	-nan
attr source  count(RMTQueue_Drop)
attr title  "dropped PDUs, last"
scalar treeBipart.N0_1.ipcProcess[1].relayAndMux.p0.outQ_M 	rmtqueue-drop:last 	-nan
attr source  count(RMTQueue_Drop)
attr title  "dropped PDUs, last"
scalar treeBipart.N0_1.ipcProcess[1].relayAndMux.p0.inQ_0 	rmtqueue-drop:last 	-nan
attr source  count(RMTQueue_Drop)
attr title  "dropped PDUs, last"
scalar treeBipart.N0_1.ipcProcess[1].relayAndMux.p0.outQ_0 	rmtqueue-drop:last 	-nan
attr source  count(RMTQueue_Drop)
attr title  "dropped PDUs, last"
scalar treeBipart.N0_1.ipcProcess[2].relayAndMux.p0.port 	rmtport-down:last 	44
attr source  count(RMTPort_PassDown)
attr title  "msg passed down, last"
scalar treeBipart.N0_1.ipcProcess[2].relayAndMux.p0.port 	rmtport-up:last 	44
attr ""  ""
attr source  count(RMTPort_PassUp)
attr title  "msg passed up, last"
scalar treeBipart.N0_1.ipcProcess[2].relayAndMux.p0.inQ_M 	rmtqueue-drop:last 	-nan
attr source  count(RMTQueue_Drop)
attr title  "dropped PDUs, last"
scalar treeBipart.N0_1.ipcProcess[2].relayAndMux.p0.outQ_M 	rmtqueue-drop:last 	-nan
attr source  count(RMTQueue_Drop)
attr title  "dropped PDUs, last"
scalar treeBipart.N0_1.ipcProcess[2].relayAndMux.p0.inQ_0 	rmtqueue-drop:last 	-nan
attr source  count(RMTQueue_Drop)
attr title  "dropped PDUs, last"
scalar treeBipart.N0_1.ipcProcess[2].relayAndMux.p0.outQ_0 	rmtqueue-drop:last 	-nan
attr source  count(RMTQueue_Drop)
attr title  "dropped PDUs, last"
scalar treeBipart.N0_1.ipcProcess[3].relayAndMux.p0.port 	rmtport-down:last 	44
attr source  count(RMTPort_PassDown)
attr title  "msg passed down, last"
scalar treeBipart.N0_1.ipcProcess[3].relayAndMux.p0.port 	rmtport-up:last 	44
attr ""  ""
attr source  count(RMTPort_PassUp)
attr title  "msg passed up, last"
scalar treeBipart.N0_1.ipcProcess[3].relayAndMux.p0.inQ_M 	rmtqueue-drop:last 	-nan
attr source  count(RMTQueue_Drop)
attr title  "dropped PDUs, last"
scalar treeBipart.N0_1.ipcProcess[3].relayAndMux.p0.outQ_M 	rmtqueue-drop:last 	-nan
attr source  count(RMTQueue_Drop)
attr title  "dropped PDUs, last"
scalar treeBipart.N0_1.ipcProcess[3].relayAndMux.p0.inQ_0 	rmtqueue-drop:last 	-nan
attr source  count(RMTQueue_Drop)
attr title  "dropped PDUs, last"
scalar treeBipart.N0_1.ipcProcess[3].relayAndMux.p0.outQ_0 	rmtqueue-drop:last 	-nan
attr source  count(RMTQueue_Drop)
attr title  "dropped PDUs, last"
scalar treeBipart.N0_1.relayIpc.relayAndMux.p0.port 	rmtport-down:last 	20
attr source  count(RMTPort_PassDown)
attr title  "msg passed down, last"
scalar treeBipart.N0_1.relayIpc.relayAndMux.p0.port 	rmtport-up:last 	24
attr ""  ""
attr source  count(RMTPort_PassUp)
attr title  "msg passed up, last"
scalar treeBipart.N0_1.relayIpc.relayAndMux.p0.inQ_M 	rmtqueue-drop:last 	-nan
attr source  count(RMTQueue_Drop)
attr title  "dropped PDUs, last"
scalar treeBipart.N0_1.relayIpc.relayAndMux.p0.outQ_M 	rmtqueue-drop:last 	-nan
attr source  count(RMTQueue_Drop)
attr title  "dropped PDUs, last"
scalar treeBipart.N0_1.relayIpc.relayAndMux.p0.inQ_0 	rmtqueue-drop:last 	-nan
attr source  count(RMTQueue_Drop)
attr title  "dropped PDUs, last"
scalar treeBipart.N0_1.relayIpc.relayAndMux.p0.outQ_0 	rmtqueue-drop:last 	-nan
attr source  count(RMTQueue_Drop)
attr title  "dropped PDUs, last"
scalar treeBipart.N0_1.relayIpc.relayAndMux.p1.port 	rmtport-down:last 	-nan
attr source  count(RMTPort_PassDown)
attr title  "msg passed down, last"
scalar treeBipart.N0_1.relayIpc.relayAndMux.p1.port 	rmtport-up:last 	-nan
attr ""  ""
attr source  count(RMTPort_PassUp)
attr title  "msg passed up, last"
scalar treeBipart.N0_1.relayIpc.relayAndMux.p1.inQ_M 	rmtqueue-drop:last 	-nan
attr source  count(RMTQueue_Drop)
attr title  "dropped PDUs, last"
scalar treeBipart.N0_1.relayIpc.relayAndMux.p1.outQ_M 	rmtqueue-drop:last 	-nan
attr source  count(RMTQueue_Drop)
attr title  "dropped PDUs, last"
scalar treeBipart.N0_1.relayIpc.relayAndMux.p1.inQ_0 	rmtqueue-drop:last 	-nan
attr source  count(RMTQueue_Drop)
attr title  "dropped PDUs, last"
scalar treeBipart.N0_1.relayIpc.relayAndMux.p1.outQ_0 	rmtqueue-drop:last 	-nan
attr source  count(RMTQueue_Drop)
attr title  "dropped PDUs, last"
scalar treeBipart.N0_1.relayIpc.relayAndMux.p2.port 	rmtport-down:last 	-nan
attr source  count(RMTPort_PassDown)
attr title  "msg passed down, last"
scalar treeBipart.N0_1.relayIpc.relayAndMux.p2.port 	rmtport-up:last 	-nan
attr ""  ""
attr source  count(RMTPort_PassUp)
attr title  "msg passed up, last"
scalar treeBipart.N0_1.relayIpc.relayAndMux.p2.inQ_M 	rmtqueue-drop:last 	-nan
attr source  count(RMTQueue_Drop)
attr title  "dropped PDUs, last"
scalar treeBipart.N0_1.relayIpc.relayAndMux.p2.outQ_M 	rmtqueue-drop:last 	-nan
attr source  count(RMTQueue_Drop)
attr title  "dropped PDUs, last"
scalar treeBipart.N0_1.relayIpc.relayAndMux.p2.inQ_0 	rmtqueue-drop:last 	-nan
attr source  count(RMTQueue_Drop)
attr title  "dropped PDUs, last"
scalar treeBipart.N0_1.relayIpc.relayAndMux.p2.outQ_0 	rmtqueue-drop:last 	-nan
attr source  count(RMTQueue_Drop)
attr title  "dropped PDUs, last"
scalar treeBipart.N0_1.relayIpc.relayAndMux.p3.port 	rmtport-down:last 	-nan
attr source  count(RMTPort_PassDown)
attr title  "msg passed down, last"
scalar treeBipart.N0_1.relayIpc.relayAndMux.p3.port 	rmtport-up:last 	-nan
attr ""  ""
attr source  count(RMTPort_PassUp)
attr title  "msg passed up, last"
scalar treeBipart.N0_1.relayIpc.relayAndMux.p3.inQ_M 	rmtqueue-drop:last 	-nan
attr source  count(RMTQueue_Drop)
attr title  "dropped PDUs, last"
scalar treeBipart.N0_1.relayIpc.relayAndMux.p3.outQ_M 	rmtqueue-drop:last 	-nan
attr source  count(RMTQueue_Drop)
attr title  "dropped PDUs, last"
scalar treeBipart.N0_1.relayIpc.relayAndMux.p3.inQ_0 	rmtqueue-drop:last 	-nan
attr source  count(RMTQueue_Drop)
attr title  "dropped PDUs, last"
scalar treeBipart.N0_1.relayIpc.relayAndMux.p3.outQ_0 	rmtqueue-drop:last 	-nan
attr source  count(RMTQueue_Drop)
attr title  "dropped PDUs, last"
scalar treeBipart.N0_1.relayIpc.relayAndMux.p4.port 	rmtport-down:last 	20
attr source  count(RMTPort_PassDown)
attr title  "msg passed down, last"
scalar treeBipart.N0_1.relayIpc.relayAndMux.p4.port 	rmtport-up:last 	20
attr ""  ""
attr source  count(RMTPort_PassUp)
attr title  "msg passed up, last"
scalar treeBipart.N0_1.relayIpc.relayAndMux.p4.inQ_M 	rmtqueue-drop:last 	-nan
attr source  count(RMTQueue_Drop)
attr title  "dropped PDUs, last"
scalar treeBipart.N0_1.relayIpc.relayAndMux.p4.outQ_M 	rmtqueue-drop:last 	-nan
attr source  count(RMTQueue_Drop)
attr title  "dropped PDUs, last"
scalar treeBipart.N0_1.relayIpc.relayAndMux.p4.inQ_0 	rmtqueue-drop:last 	-nan
attr source  count(RMTQueue_Drop)
attr title  "dropped PDUs, last"
scalar treeBipart.N0_1.relayIpc.relayAndMux.p4.outQ_0 	rmtqueue-drop:last 	-nan
attr source  count(RMTQueue_Drop)
attr title  "dropped PDUs, last"
scalar treeBipart.N0_1.relayIpc.relayAndMux.p5.port 	rmtport-down:last 	20
attr source  count(RMTPort_PassDown)
attr title  "msg passed down, last"
scalar treeBipart.N0_1.relayIpc.relayAndMux.p5.port 	rmtport-up:last 	20
attr ""  ""
attr source  count(RMTPort_PassUp)
attr title  "msg passed up, last"
scalar treeBipart.N0_1.relayIpc.relayAndMux.p5.inQ_M 	rmtqueue-drop:last 	-nan
attr source  count(RMTQueue_Drop)
attr title  "dropped PDUs, last"
scalar treeBipart.N0_1.relayIpc.relayAndMux.p5.outQ_M 	rmtqueue-drop:last 	-nan
attr source  count(RMTQueue_Drop)
attr title  "dropped PDUs, last"
scalar treeBipart.N0_1.relayIpc.relayAndMux.p5.inQ_0 	rmtqueue-drop:last 	-nan
attr source  count(RMTQueue_Drop)
attr title  "dropped PDUs, last"
scalar treeBipart.N0_1.relayIpc.relayAndMux.p5.outQ_0 	rmtqueue-drop:last 	-nan
attr source  count(RMTQueue_Drop)
attr title  "dropped PDUs, last"
scalar treeBipart.N0_1.relayIpc.relayAndMux.p6.port 	rmtport-down:last 	20
attr source  count(RMTPort_PassDown)
attr title  "msg passed down, last"
scalar treeBipart.N0_1.relayIpc.relayAndMux.p6.port 	rmtport-up:last 	20
attr ""  ""
attr source  count(RMTPort_PassUp)
attr title  "msg passed up, last"
scalar treeBipart.N0_1.relayIpc.relayAndMux.p6.inQ_M 	rmtqueue-drop:last 	-nan
attr source  count(RMTQueue_Drop)
attr title  "dropped PDUs, last"
scalar treeBipart.N0_1.relayIpc.relayAndMux.p6.outQ_M 	rmtqueue-drop:last 	-nan
attr source  count(RMTQueue_Drop)
attr title  "dropped PDUs, last"
scalar treeBipart.N0_1.relayIpc.relayAndMux.p6.inQ_0 	rmtqueue-drop:last 	-nan
attr source  count(RMTQueue_Drop)
attr title  "dropped PDUs, last"
scalar treeBipart.N0_1.relayIpc.relayAndMux.p6.outQ_0 	rmtqueue-drop:last 	-nan
attr source  count(RMTQueue_Drop)
attr title  "dropped PDUs, last"
scalar treeBipart.N0_1.relayIpc.relayAndMux.p7.port 	rmtport-down:last 	-nan
attr source  count(RMTPort_PassDown)
attr title  "msg passed down, last"
scalar treeBipart.N0_1.relayIpc.relayAndMux.p7.port 	rmtport-up:last 	-nan
attr ""  ""
attr source  count(RMTPort_PassUp)
attr title  "msg passed up, last"
scalar treeBipart.N0_1.relayIpc.relayAndMux.p7.inQ_M 	rmtqueue-drop:last 	-nan
attr source  count(RMTQueue_Drop)
attr title  "dropped PDUs, last"
scalar treeBipart.N0_1.relayIpc.relayAndMux.p7.outQ_M 	rmtqueue-drop:last 	-nan
attr source  count(RMTQueue_Drop)
attr title  "dropped PDUs, last"
scalar treeBipart.N0_1.relayIpc.relayAndMux.p7.inQ_0 	rmtqueue-drop:last 	-nan
attr source  count(RMTQueue_Drop)
attr title  "dropped PDUs, last"
scalar treeBipart.N0_1.relayIpc.relayAndMux.p7.outQ_0 	rmtqueue-drop:last 	-nan
attr source  count(RMTQueue_Drop)
attr title  "dropped PDUs, last"
scalar treeBipart.N0_1.relayIpc.relayAndMux.p8.port 	rmtport-down:last 	-nan
attr source  count(RMTPort_PassDown)
attr title  "msg passed down, last"
scalar treeBipart.N0_1.relayIpc.relayAndMux.p8.port 	rmtport-up:last 	-nan
attr ""  ""
attr source  count(RMTPort_PassUp)
attr title  "msg passed up, last"
scalar treeBipart.N0_1.relayIpc.relayAndMux.p8.inQ_M 	rmtqueue-drop:last 	-nan
attr source  count(RMTQueue_Drop)
attr title  "dropped PDUs, last"
scalar treeBipart.N0_1.relayIpc.relayAndMux.p8.outQ_M 	rmtqueue-drop:last 	-nan
attr source  count(RMTQueue_Drop)
attr title  "dropped PDUs, last"
scalar treeBipart.N0_1.relayIpc.relayAndMux.p8.inQ_0 	rmtqueue-drop:last 	-nan
attr source  count(RMTQueue_Drop)
attr title  "dropped PDUs, last"
scalar treeBipart.N0_1.relayIpc.relayAndMux.p8.outQ_0 	rmtqueue-drop:last 	-nan
attr source  count(RMTQueue_Drop)
attr title  "dropped PDUs, last"
scalar treeBipart.N0_1.relayIpc.relayAndMux.p9.port 	rmtport-down:last 	-nan
attr source  count(RMTPort_PassDown)
attr title  "msg passed down, last"
scalar treeBipart.N0_1.relayIpc.relayAndMux.p9.port 	rmtport-up:last 	-nan
attr ""  ""
attr source  count(RMTPort_PassUp)
attr title  "msg passed up, last"
scalar treeBipart.N0_1.relayIpc.relayAndMux.p9.inQ_M 	rmtqueue-drop:last 	-nan
attr source  count(RMTQueue_Drop)
attr title  "dropped PDUs, last"
scalar treeBipart.N0_1.relayIpc.relayAndMux.p9.outQ_M 	rmtqueue-drop:last 	-nan
attr source  count(RMTQueue_Drop)
attr title  "dropped PDUs, last"
scalar treeBipart.N0_1.relayIpc.relayAndMux.p9.inQ_0 	rmtqueue-drop:last 	-nan
attr source  count(RMTQueue_Drop)
attr title  "dropped PDUs, last"
scalar treeBipart.N0_1.relayIpc.relayAndMux.p9.outQ_0 	rmtqueue-drop:last 	-nan
attr source  count(RMTQueue_Drop)
attr title  "dropped PDUs, last"
scalar treeBipart.N0_1.relayIpc.relayAndMux.p10.port 	rmtport-down:last 	-nan
attr source  count(RMTPort_PassDown)
attr title  "msg passed down, last"
scalar treeBipart.N0_1.relayIpc.relayAndMux.p10.port 	rmtport-up:last 	-nan
attr ""  ""
attr source  count(RMTPort_PassUp)
attr title  "msg passed up, last"
scalar treeBipart.N0_1.relayIpc.relayAndMux.p10.inQ_M 	rmtqueue-drop:last 	-nan
attr source  count(RMTQueue_Drop)
attr title  "dropped PDUs, last"
scalar treeBipart.N0_1.relayIpc.relayAndMux.p10.outQ_M 	rmtqueue-drop:last 	-nan
attr source  count(RMTQueue_Drop)
attr title  "dropped PDUs, last"
scalar treeBipart.N0_1.relayIpc.relayAndMux.p10.inQ_0 	rmtqueue-drop:last 	-nan
attr source  count(RMTQueue_Drop)
attr title  "dropped PDUs, last"
scalar treeBipart.N0_1.relayIpc.relayAndMux.p10.outQ_0 	rmtqueue-drop:last 	-nan
attr source  count(RMTQueue_Drop)
attr title  "dropped PDUs, last"
scalar treeBipart.N0_1.relayIpc.relayAndMux.p11.port 	rmtport-down:last 	-nan
attr source  count(RMTPort_PassDown)
attr title  "msg passed down, last"
scalar treeBipart.N0_1.relayIpc.relayAndMux.p11.port 	rmtport-up:last 	-nan
attr ""  ""
attr source  count(RMTPort_PassUp)
attr title  "msg passed up, last"
scalar treeBipart.N0_1.relayIpc.relayAndMux.p11.inQ_M 	rmtqueue-drop:last 	-nan
attr source  count(RMTQueue_Drop)
attr title  "dropped PDUs, last"
scalar treeBipart.N0_1.relayIpc.relayAndMux.p11.outQ_M 	rmtqueue-drop:last 	-nan
attr source  count(RMTQueue_Drop)
attr title  "dropped PDUs, last"
scalar treeBipart.N0_1.relayIpc.relayAndMux.p11.inQ_0 	rmtqueue-drop:last 	-nan
attr source  count(RMTQueue_Drop)
attr title  "dropped PDUs, last"
scalar treeBipart.N0_1.relayIpc.relayAndMux.p11.outQ_0 	rmtqueue-drop:last 	-nan
attr source  count(RMTQueue_Drop)
attr title  "dropped PDUs, last"
scalar treeBipart.N0_1.relayIpc.relayAndMux.p12.port 	rmtport-down:last 	-nan
attr source  count(RMTPort_PassDown)
attr title  "msg passed down, last"
scalar treeBipart.N0_1.relayIpc.relayAndMux.p12.port 	rmtport-up:last 	-nan
attr ""  ""
attr source  count(RMTPort_PassUp)
attr title  "msg passed up, last"
scalar treeBipart.N0_1.relayIpc.relayAndMux.p12.inQ_M 	rmtqueue-drop:last 	-nan
attr source  count(RMTQueue_Drop)
attr title  "dropped PDUs, last"
scalar treeBipart.N0_1.relayIpc.relayAndMux.p12.outQ_M 	rmtqueue-drop:last 	-nan
attr source  count(RMTQueue_Drop)
attr title  "dropped PDUs, last"
scalar treeBipart.N0_1.relayIpc.relayAndMux.p12.inQ_0 	rmtqueue-drop:last 	-nan
attr source  count(RMTQueue_Drop)
attr title  "dropped PDUs, last"
scalar treeBipart.N0_1.relayIpc.relayAndMux.p12.outQ_0 	rmtqueue-drop:last 	-nan
attr source  count(RMTQueue_Drop)
attr title  "dropped PDUs, last"
scalar treeBipart.N0_1.relayIpc.relayAndMux.p13.port 	rmtport-down:last 	-nan
attr source  count(RMTPort_PassDown)
attr title  "msg passed down, last"
scalar treeBipart.N0_1.relayIpc.relayAndMux.p13.port 	rmtport-up:last 	-nan
attr ""  ""
attr source  count(RMTPort_PassUp)
attr title  "msg passed up, last"
scalar treeBipart.N0_1.relayIpc.relayAndMux.p13.inQ_M 	rmtqueue-drop:last 	-nan
attr source  count(RMTQueue_Drop)
attr title  "dropped PDUs, last"
scalar treeBipart.N0_1.relayIpc.relayAndMux.p13.outQ_M 	rmtqueue-drop:last 	-nan
attr source  count(RMTQueue_Drop)
attr title  "dropped PDUs, last"
scalar treeBipart.N0_1.relayIpc.relayAndMux.p13.inQ_0 	rmtqueue-drop:last 	-nan
attr source  count(RMTQueue_Drop)
attr title  "dropped PDUs, last"
scalar treeBipart.N0_1.relayIpc.relayAndMux.p13.outQ_0 	rmtqueue-drop:last 	-nan
attr source  count(RMTQueue_Drop)
attr title  "dropped PDUs, last"
scalar treeBipart.N0_1.relayIpc.relayAndMux.p14.port 	rmtport-down:last 	-nan
attr source  count(RMTPort_PassDown)
attr title  "msg passed down, last"
scalar treeBipart.N0_1.relayIpc.relayAndMux.p14.port 	rmtport-up:last 	-nan
attr ""  ""
attr source  count(RMTPort_PassUp)
attr title  "msg passed up, last"
scalar treeBipart.N0_1.relayIpc.relayAndMux.p14.inQ_M 	rmtqueue-drop:last 	-nan
attr source  count(RMTQueue_Drop)
attr title  "dropped PDUs, last"
scalar treeBipart.N0_1.relayIpc.relayAndMux.p14.outQ_M 	rmtqueue-drop:last 	-nan
attr source  count(RMTQueue_Drop)
attr title  "dropped PDUs, last"
scalar treeBipart.N0_1.relayIpc.relayAndMux.p14.inQ_0 	rmtqueue-drop:last 	-nan
attr source  count(RMTQueue_Drop)
attr title  "dropped PDUs, last"
scalar treeBipart.N0_1.relayIpc.relayAndMux.p14.outQ_0 	rmtqueue-drop:last 	-nan
attr source  count(RMTQueue_Drop)
attr title  "dropped PDUs, last"
scalar treeBipart.N0_1.relayIpc.relayAndMux.p15.port 	rmtport-down:last 	-nan
attr source  count(RMTPort_PassDown)
attr title  "msg passed down, last"
scalar treeBipart.N0_1.relayIpc.relayAndMux.p15.port 	rmtport-up:last 	-nan
attr ""  ""
attr source  count(RMTPort_PassUp)
attr title  "msg passed up, last"
scalar treeBipart.N0_1.relayIpc.relayAndMux.p15.inQ_M 	rmtqueue-drop:last 	-nan
attr source  count(RMTQueue_Drop)
attr title  "dropped PDUs, last"
scalar treeBipart.N0_1.relayIpc.relayAndMux.p15.outQ_M 	rmtqueue-drop:last 	-nan
attr source  count(RMTQueue_Drop)
attr title  "dropped PDUs, last"
scalar treeBipart.N0_1.relayIpc.relayAndMux.p15.inQ_0 	rmtqueue-drop:last 	-nan
attr source  count(RMTQueue_Drop)
attr title  "dropped PDUs, last"
scalar treeBipart.N0_1.relayIpc.relayAndMux.p15.outQ_0 	rmtqueue-drop:last 	-nan
attr source  count(RMTQueue_Drop)
attr title  "dropped PDUs, last"
scalar treeBipart.N0_1_0.ipcProcess[0].relayAndMux.p0.port 	rmtport-down:last 	44
attr source  count(RMTPort_PassDown)
attr title  "msg passed down, last"
scalar treeBipart.N0_1_0.ipcProcess[0].relayAndMux.p0.port 	rmtport-up:last 	44
attr ""  ""
attr source  count(RMTPort_PassUp)
attr title  "msg passed up, last"
scalar treeBipart.N0_1_0.ipcProcess[0].relayAndMux.p0.inQ_M 	rmtqueue-drop:last 	-nan
attr source  count(RMTQueue_Drop)
attr title  "dropped PDUs, last"
scalar treeBipart.N0_1_0.ipcProcess[0].relayAndMux.p0.outQ_M 	rmtqueue-drop:last 	-nan
[...]
attr title  "dropped PDUs, last"
scalar treeBipart.N1_2_0.relayIpc.relayAndMux.p4.port 	rmtport-down:last 	5
attr source  count(RMTPort_PassDown)
attr title  "msg passed down, last"
scalar treeBipart.N1_2_0.relayIpc.relayAndMux.p4.port 	rmtport-up:last 	5
attr ""  ""
attr source  count(RMTPort_PassUp)
attr title  "msg passed up, last"
scalar treeBipart.N1_2_0.relayIpc.relayAndMux.p4.inQ_M 	rmtqueue-drop:last 	-nan
attr source  count(RMTQueue_Drop)
attr title  "dropped PDUs, last"
scalar treeBipart.N1_2_0.relayIpc.relayAndMux.p4.outQ_M 	rmtqueue-drop:last 	-nan
attr source  count(RMTQueue_Drop)
attr title  "dropped PDUs, last"
scalar treeBipart.N1_2_0.relayIpc.relayAndMux.p4.inQ_0 	rmtqueue-drop:last 	-nan
attr source  count(RMTQueue_Drop)
attr title  "dropped PDUs, last"
scalar treeBipart.N1_2_0.relayIpc.relayAndMux.p4.outQ_0 	rmtqueue-drop:last 	-nan
attr source  count(RMTQueue_Drop)
attr title  "dropped PDUs, last"
scalar treeBipart.S1_2_0.ipcProcess0.relayAndMux.p0.port 	rmtport-down:last 	11
attr source  count(RMTPort_PassDown)
attr title  "msg passed down, last"
scalar treeBipart.S1_2_0.ipcProcess0.relayAndMux.p0.port 	rmtport-up:last 	11
attr ""  ""
attr source  count(RMTPort_PassUp)
attr title  "msg passed up, last"
scalar treeBipart.S1_2_0.ipcProcess0.relayAndMux.p0.inQ_M 	rmtqueue-drop:last 	-nan
attr source  count(RMTQueue_Drop)
attr title  "dropped PDUs, last"
scalar treeBipart.S1_2_0.ipcProcess0.relayAndMux.p0.outQ_M 	rmtqueue-drop:last 	-nan
attr source  count(RMTQueue_Drop)
attr title  "dropped PDUs, last"
scalar treeBipart.S1_2_0.ipcProcess0.relayAndMux.p0.inQ_0 	rmtqueue-drop:last 	-nan
attr source  count(RMTQueue_Drop)
attr title  "dropped PDUs, last"
scalar treeBipart.S1_2_0.ipcProcess0.relayAndMux.p0.outQ_0 	rmtqueue-drop:last 	-nan
attr source  count(RMTQueue_Drop)
attr title  "dropped PDUs, last"
scalar treeBipart.S1_2_0.ipcProcess1.relayAndMux.p0.port 	rmtport-down:last 	5
attr source  count(RMTPort_PassDown)
attr title  "msg passed down, last"
scalar treeBipart.S1_2_0.ipcProcess1.relayAndMux.p0.port 	rmtport-up:last 	5
attr ""  ""
attr source  count(RMTPort_PassUp)
attr title  "msg passed up, last"
scalar treeBipart.S1_2_0.ipcProcess1.relayAndMux.p0.inQ_M 	rmtqueue-drop:last 	-nan
attr source  count(RMTQueue_Drop)
attr title  "dropped PDUs, last"
scalar treeBipart.S1_2_0.ipcProcess1.relayAndMux.p0.outQ_M 	rmtqueue-drop:last 	-nan
attr source  count(RMTQueue_Drop)
attr title  "dropped PDUs, last"
scalar treeBipart.S1_2_0.ipcProcess1.relayAndMux.p0.inQ_0 	rmtqueue-drop:last 	-nan
attr source  count(RMTQueue_Drop)
attr title  "dropped PDUs, last"
scalar treeBipart.S1_2_0.ipcProcess1.relayAndMux.p0.outQ_0 	rmtqueue-drop:last 	-nan
attr source  count(RMTQueue_Drop)
attr title  "dropped PDUs, last"
scalar treeBipart.S1_2_0.ipcResourceManager.irm 	irm-down:last 	-nan
attr source  count(IRM_PassDown)
attr title  "msg passed down, last"
scalar treeBipart.S1_2_0.ipcResourceManager.irm 	irm-up:last 	-nan
attr source  count(IRM_PassUp)
attr title  "msg passed up, last"
scalar treeBipart.N1_2_1.ipcProcess[0].relayAndMux.p0.port 	rmtport-down:last 	48
attr source  count(RMTPort_PassDown)
attr title  "msg passed down, last"
scalar treeBipart.N1_2_1.ipcProcess[0].relayAndMux.p0.port 	rmtport-up:last 	48
attr ""  ""
attr source  count(RMTPort_PassUp)
attr title  "msg passed up, last"
scalar treeBipart.N1_2_1.ipcProcess[0].relayAndMux.p0.inQ_M 	rmtqueue-drop:last 	-nan
attr source  count(RMTQueue_Drop)
attr title  "dropped PDUs, last"
scalar treeBipart.N1_2_1.ipcProcess[0].relayAndMux.p0.outQ_M 	rmtqueue-drop:last 	-nan
attr source  count(RMTQueue_Drop)
attr title  "dropped PDUs, last"
scalar treeBipart.N1_2_1.ipcProcess[0].relayAndMux.p0.inQ_0 	rmtqueue-drop:last 	-nan
attr source  count(RMTQueue_Drop)
attr title  "dropped PDUs, last"
scalar treeBipart.N1_2_1.ipcProcess[0].relayAndMux.p0.outQ_0 	rmtqueue-drop:last 	-nan
attr source  count(RMTQueue_Drop)
attr title  "dropped PDUs, last"
scalar treeBipart.N1_2_1.ipcProcess[1].relayAndMux.p0.port 	rmtport-down:last 	11
attr source  count(RMTPort_PassDown)
attr title  "msg passed down, last"
scalar treeBipart.N1_2_1.ipcProcess[1].relayAndMux.p0.port 	rmtport-up:last 	11
attr ""  ""
attr source  count(RMTPort_PassUp)
attr title  "msg passed up, last"
scalar treeBipart.N1_2_1.ipcProcess[1].relayAndMux.p0.inQ_M 	rmtqueue-drop:last 	-nan
attr source  count(RMTQueue_Drop)
attr title  "dropped PDUs, last"
scalar treeBipart.N1_2_1.ipcProcess[1].relayAndMux.p0.outQ_M 	rmtqueue-drop:last 	-nan
attr source  count(RMTQueue_Drop)
attr title  "dropped PDUs, last"
scalar treeBipart.N1_2_1.ipcProcess[1].relayAndMux.p0.inQ_0 	rmtqueue-drop:last 	-nan
attr source  count(RMTQueue_Drop)
attr title  "dropped PDUs, last"
scalar treeBipart.N1_2_1.ipcProcess[1].relayAndMux.p0.outQ_0 	rmtqueue-drop:last 	-nan
attr source  count(RMTQueue_Drop)
attr title  "dropped PDUs, last"
scalar treeBipart.N1_2_1.relayIpc.relayAndMux.p0.port 	rmtport-down:last 	20
attr source  count(RMTPort_PassDown)
attr title  "msg passed down, last"
scalar treeBipart.N1_2_1.relayIpc.relayAndMux.p0.port 	rmtport-up:last 	24
attr ""  ""
attr source  count(RMTPort_PassUp)
attr title  "msg passed up, last"
scalar treeBipart.N1_2_1.relayIpc.relayAndMux.p0.inQ_M 	rmtqueue-drop:last 	-nan
attr source  count(RMTQueue_Drop)
attr title  "dropped PDUs, last"
scalar treeBipart.N1_2_1.relayIpc.relayAndMux.p0.outQ_M 	rmtqueue-drop:last 	-nan
attr source  count(RMTQueue_Drop)
attr title  "dropped PDUs, last"
scalar treeBipart.N1_2_1.relayIpc.relayAndMux.p0.inQ_0 	rmtqueue-drop:last 	-nan
attr source  count(RMTQueue_Drop)
attr title  "dropped PDUs, last"
scalar treeBipart.N1_2_1.relayIpc.relayAndMux.p0.outQ_0 	rmtqueue-drop:last 	-nan
attr source  count(RMTQueue_Drop)
attr title  "dropped PDUs, last"
scalar treeBipart.N1_2_1.relayIpc.relayAndMux.p1.port 	rmtport-down:last 	-nan
attr source  count(RMTPort_PassDown)
attr title  "msg passed down, last"
scalar treeBipart.N1_2_1.relayIpc.relayAndMux.p1.port 	rmtport-up:last 	-nan
attr ""  ""
attr source  count(RMTPort_PassUp)
attr title  "msg passed up, last"
scalar treeBipart.N1_2_1.relayIpc.relayAndMux.p1.inQ_M 	rmtqueue-drop:last 	-nan
attr source  count(RMTQueue_Drop)
attr title  "dropped PDUs, last"
scalar treeBipart.N1_2_1.relayIpc.relayAndMux.p1.outQ_M 	rmtqueue-drop:last 	-nan
attr source  count(RMTQueue_Drop)
attr title  "dropped PDUs, last"
scalar treeBipart.N1_2_1.relayIpc.relayAndMux.p1.inQ_0 	rmtqueue-drop:last 	-nan
attr source  count(RMTQueue_Drop)
attr title  "dropped PDUs, last"
scalar treeBipart.N1_2_1.relayIpc.relayAndMux.p1.outQ_0 	rmtqueue-drop:last 	-nan
attr source  count(RMTQueue_Drop)
attr title  "dropped PDUs, last"
scalar treeBipart.N1_2_1.relayIpc.relayAndMux.p2.port 	rmtport-down:last 	-nan
attr source  count(RMTPort_PassDown)
attr title  "msg passed down, last"
scalar treeBipart.N1_2_1.relayIpc.relayAndMux.p2.port 	rmtport-up:last 	-nan
attr ""  ""
attr source  count(RMTPort_PassUp)
attr title  "msg passed up, last"
scalar treeBipart.N1_2_1.relayIpc.relayAndMux.p2.inQ_M 	rmtqueue-drop:last 	-nan
attr source  count(RMTQueue_Drop)
attr title  "dropped PDUs, last"
scalar treeBipart.N1_2_1.relayIpc.relayAndMux.p2.outQ_M 	rmtqueue-drop:last 	-nan
attr source  count(RMTQueue_Drop)
attr title  "dropped PDUs, last"
scalar treeBipart.N1_2_1.relayIpc.relayAndMux.p2.inQ_0 	rmtqueue-drop:last 	-nan
attr source  count(RMTQueue_Drop)
attr title  "dropped PDUs, last"
scalar treeBipart.N1_2_1.relayIpc.relayAndMux.p2.outQ_0 	rmtqueue-drop:last 	-nan
attr source  count(RMTQueue_Drop)
attr title  "dropped PDUs, last"
scalar treeBipart.N1_2_1.relayIpc.relayAndMux.p3.port 	rmtport-down:last 	-nan
attr source  count(RMTPort_PassDown)
attr title  "msg passed down, last"
scalar treeBipart.N1_2_1.relayIpc.relayAndMux.p3.port 	rmtport-up:last 	-nan
attr ""  ""
attr source  count(RMTPort_PassUp)
attr title  "msg passed up, last"
scalar treeBipart.N1_2_1.relayIpc.relayAndMux.p3.inQ_M 	rmtqueue-drop:last 	-nan
attr source  count(RMTQueue_Drop)
attr title  "dropped PDUs, last"
scalar treeBipart.N1_2_1.relayIpc.relayAndMux.p3.outQ_M 	rmtqueue-drop:last 	-nan
attr source  count(RMTQueue_Drop)
attr title  "dropped PDUs, last"
scalar treeBipart.N1_2_1.relayIpc.relayAndMux.p3.inQ_0 	rmtqueue-drop:last 	-nan
attr source  count(RMTQueue_Drop)
attr title  "dropped PDUs, last"
scalar treeBipart.N1_2_1.relayIpc.relayAndMux.p3.outQ_0 	rmtqueue-drop:last 	-nan
attr source  count(RMTQueue_Drop)
attr title  "dropped PDUs, last"
scalar treeBipart.N1_2_1.relayIpc.relayAndMux.p4.port 	rmtport-down:last 	5
attr source  count(RMTPort_PassDown)
attr title  "msg passed down, last"
scalar treeBipart.N1_2_1.relayIpc.relayAndMux.p4.port 	rmtport-up:last 	5
attr ""  ""
attr source  count(RMTPort_PassUp)
attr title  "msg passed up, last"
scalar treeBipart.N1_2_1.relayIpc.relayAndMux.p4.inQ_M 	rmtqueue-drop:last 	-nan
attr source  count(RMTQueue_Drop)
attr title  "dropped PDUs, last"
scalar treeBipart.N1_2_1.relayIpc.relayAndMux.p4.outQ_M 	rmtqueue-drop:last 	-nan
attr source  count(RMTQueue_Drop)
attr title  "dropped PDUs, last"
scalar treeBipart.N1_2_1.relayIpc.relayAndMux.p4.inQ_0 	rmtqueue-drop:last 	-nan
attr source  count(RMTQueue_Drop)
attr title  "dropped PDUs, last"
scalar treeBipart.N1_2_1.relayIpc.relayAndMux.p4.outQ_0 	rmtqueue-drop:last 	-nan
attr source  count(RMTQueue_Drop)
attr title  "dropped PDUs, last"
scalar treeBipart.S1_2_1.ipcProcess0.relayAndMux.p0.port 	rmtport-down:last 	11
attr source  count(RMTPort_PassDown)
attr title  "msg passed down, last"
scalar treeBipart.S1_2_1.ipcProcess0.relayAndMux.p0.port 	rmtport-up:last 	11
attr ""  ""
attr source  count(RMTPort_PassUp)
attr title  "msg passed up, last"
scalar treeBipart.S1_2_1.ipcProcess0.relayAndMux.p0.inQ_M 	rmtqueue-drop:last 	-nan
attr source  count(RMTQueue_Drop)
attr title  "dropped PDUs, last"
scalar treeBipart.S1_2_1.ipcProcess0.relayAndMux.p0.outQ_M 	rmtqueue-drop:last 	-nan
attr source  count(RMTQueue_Drop)
attr title  "dropped PDUs, last"
scalar treeBipart.S1_2_1.ipcProcess0.relayAndMux.p0.inQ_0 	rmtqueue-drop:last 	-nan
attr source  count(RMTQueue_Drop)
attr title  "dropped PDUs, last"
scalar treeBipart.S1_2_1.ipcProcess0.relayAndMux.p0.outQ_0 	rmtqueue-drop:last 	-nan
attr source  count(RMTQueue_Drop)
attr title  "dropped PDUs, last"
scalar treeBipart.S1_2_1.ipcProcess1.relayAndMux.p0.port 	rmtport-down:last 	5
attr source  count(RMTPort_PassDown)
attr title  "msg passed down, last"
scalar treeBipart.S1_2_1.ipcProcess1.relayAndMux.p0.port 	rmtport-up:last 	5
attr ""  ""
attr source  count(RMTPort_PassUp)
attr title  "msg passed up, last"
scalar treeBipart.S1_2_1.ipcProcess1.relayAndMux.p0.inQ_M 	rmtqueue-drop:last 	-nan
attr source  count(RMTQueue_Drop)
attr title  "dropped PDUs, last"
scalar treeBipart.S1_2_1.ipcProcess1.relayAndMux.p0.outQ_M 	rmtqueue-drop:last 	-nan
attr source  count(RMTQueue_Drop)
attr title  "dropped PDUs, last"
scalar treeBipart.S1_2_1.ipcProcess1.relayAndMux.p0.inQ_0 	rmtqueue-drop:last 	-nan
attr source  count(RMTQueue_Drop)
attr title  "dropped PDUs, last"
scalar treeBipart.S1_2_1.ipcProcess1.relayAndMux.p0.outQ_0 	rmtqueue-drop:last 	-nan
attr source  count(RMTQueue_Drop)
attr title  "dropped PDUs, last"
scalar treeBipart.S1_2_1.ipcResourceManager.irm 	irm-down:last 	-nan
attr source  count(IRM_PassDown)
attr title  "msg passed down, last"
scalar treeBipart.S1_2_1.ipcResourceManager.irm 	irm-up:last 	-nan
attr source  count(IRM_PassUp)
attr title  "msg passed up, last"
scalar treeBipart.N1_2_2.ipcProcess[0].relayAndMux.p0.port 	rmtport-down:last 	48
attr source  count(RMTPort_PassDown)
attr title  "msg passed down, last"
scalar treeBipart.N1_2_2.ipcProcess[0].relayAndMux.p0.port 	rmtport-up:last 	48
attr ""  ""
attr source  count(RMTPort_PassUp)
attr title  "msg passed up, last"
scalar treeBipart.N1_2_2.ipcProcess[0].relayAndMux.p0.inQ_M 	rmtqueue-drop:last 	-nan
attr source  count(RMTQueue_Drop)
attr title  "dropped PDUs, last"
scalar treeBipart.N1_2_2.ipcProcess[0].relayAndMux.p0.outQ_M 	rmtqueue-drop:last 	-nan
attr source  count(RMTQueue_Drop)
attr title  "dropped PDUs, last"
scalar treeBipart.N1_2_2.ipcProcess[0].relayAndMux.p0.inQ_0 	rmtqueue-drop:last 	-nan
attr source  count(RMTQueue_Drop)
attr title  "dropped PDUs, last"
scalar treeBipart.N1_2_2.ipcProcess[0].relayAndMux.p0.outQ_0 	rmtqueue-drop:last 	-nan
attr source  count(RMTQueue_Drop)
attr title  "dropped PDUs, last"
scalar treeBipart.N1_2_2.ipcProcess[1].relayAndMux.p0.port 	rmtport-down:last 	11
attr source  count(RMTPort_PassDown)
attr title  "msg passed down, last"
scalar treeBipart.N1_2_2.ipcProcess[1].relayAndMux.p0.port 	rmtport-up:last 	11
attr ""  ""
attr source  count(RMTPort_PassUp)
attr title  "msg passed up, last"
scalar treeBipart.N1_2_2.ipcProcess[1].relayAndMux.p0.inQ_M 	rmtqueue-drop:last 	-nan
attr source  count(RMTQueue_Drop)
attr title  "dropped PDUs, last"
scalar treeBipart.N1_2_2.ipcProcess[1].relayAndMux.p0.outQ_M 	rmtqueue-drop:last 	-nan
attr source  count(RMTQueue_Drop)
attr title  "dropped PDUs, last"
scalar treeBipart.N1_2_2.ipcProcess[1].relayAndMux.p0.inQ_0 	rmtqueue-drop:last 	-nan
attr source  count(RMTQueue_Drop)
attr title  "dropped PDUs, last"
scalar treeBipart.N1_2_2.ipcProcess[1].relayAndMux.p0.outQ_0 	rmtqueue-drop:last 	-nan
attr source  count(RMTQueue_Drop)
attr title  "dropped PDUs, last"
scalar treeBipart.N1_2_2.relayIpc.relayAndMux.p0.port 	rmtport-down:last 	20
attr source  count(RMTPort_PassDown)
attr title  "msg passed down, last"
scalar treeBipart.N1_2_2.relayIpc.relayAndMux.p0.port 	rmtport-up:last 	24
attr ""  ""
attr source  count(RMTPort_PassUp)
attr title  "msg passed up, last"
scalar treeBipart.N1_2_2.relayIpc.relayAndMux.p0.inQ_M 	rmtqueue-drop:last 	-nan
attr source  count(RMTQueue_Drop)
attr title  "dropped PDUs, last"
scalar treeBipart.N1_2_2.relayIpc.relayAndMux.p0.outQ_M 	rmtqueue-drop:last 	-nan
attr source  count(RMTQueue_Drop)
attr title  "dropped PDUs, last"
scalar treeBipart.N1_2_2.relayIpc.relayAndMux.p0.inQ_0 	rmtqueue-drop:last 	-nan
attr source  count(RMTQueue_Drop)
attr title  "dropped PDUs, last"
scalar treeBipart.N1_2_2.relayIpc.relayAndMux.p0.outQ_0 	rmtqueue-drop:last 	-nan
attr source  count(RMTQueue_Drop)
attr title  "dropped PDUs, last"
scalar treeBipart.N1_2_2.relayIpc.relayAndMux.p1.port 	rmtport-down:last 	-nan
attr source  count(RMTPort_PassDown)
attr title  "msg passed down, last"
scalar treeBipart.N1_2_2.relayIpc.relayAndMux.p1.port 	rmtport-up:last 	-nan
attr ""  ""
attr source  count(RMTPort_PassUp)
attr title  "msg passed up, last"
scalar treeBipart.N1_2_2.relayIpc.relayAndMux.p1.inQ_M 	rmtqueue-drop:last 	-nan
attr source  count(RMTQueue_Drop)
attr title  "dropped PDUs, last"
scalar treeBipart.N1_2_2.relayIpc.relayAndMux.p1.outQ_M 	rmtqueue-drop:last 	-nan
attr source  count(RMTQueue_Drop)
attr title  "dropped PDUs, last"
scalar treeBipart.N1_2_2.relayIpc.relayAndMux.p1.inQ_0 	rmtqueue-drop:last 	-nan
attr source  count(RMTQueue_Drop)
attr title  "dropped PDUs, last"
scalar treeBipart.N1_2_2.relayIpc.relayAndMux.p1.outQ_0 	rmtqueue-drop:last 	-nan
attr source  count(RMTQueue_Drop)
attr title  "dropped PDUs, last"
scalar treeBipart.N1_2_2.relayIpc.relayAndMux.p2.port 	rmtport-down:last 	-nan
attr source  count(RMTPort_PassDown)
attr title  "msg passed down, last"
scalar treeBipart.N1_2_2.relayIpc.relayAndMux.p2.port 	rmtport-up:last 	-nan
attr ""  ""
attr source  count(RMTPort_PassUp)
attr title  "msg passed up, last"
scalar treeBipart.N1_2_2.relayIpc.relayAndMux.p2.inQ_M 	rmtqueue-drop:last 	-nan
attr source  count(RMTQueue_Drop)
attr title  "dropped PDUs, last"
scalar treeBipart.N1_2_2.relayIpc.relayAndMux.p2.outQ_M 	rmtqueue-drop:last 	-nan
attr source  count(RMTQueue_Drop)
attr title  "dropped PDUs, last"
scalar treeBipart.N1_2_2.relayIpc.relayAndMux.p2.inQ_0 	rmtqueue-drop:last 	-nan
attr source  count(RMTQueue_Drop)
attr title  "dropped PDUs, last"
scalar treeBipart.N1_2_2.relayIpc.relayAndMux.p2.outQ_0 	rmtqueue-drop:last 	-nan
attr source  count(RMTQueue_Drop)
attr title  "dropped PDUs, last"
scalar treeBipart.N1_2_2.relayIpc.relayAndMux.p3.port 	rmtport-down:last 	-nan
attr source  count(RMTPort_PassDown)
attr title  "msg passed down, last"
scalar treeBipart.N1_2_2.relayIpc.relayAndMux.p3.port 	rmtport-up:last 	-nan
attr ""  ""
attr source  count(RMTPort_PassUp)
attr title  "msg passed up, last"
scalar treeBipart.N1_2_2.relayIpc.relayAndMux.p3.inQ_M 	rmtqueue-drop:last 	-nan
attr source  count(RMTQueue_Drop)
attr title  "dropped PDUs, last"
scalar treeBipart.N1_2_2.relayIpc.relayAndMux.p3.outQ_M 	rmtqueue-drop:last 	-nan
attr source  count(RMTQueue_Drop)
attr title  "dropped PDUs, last"
scalar treeBipart.N1_2_2.relayIpc.relayAndMux.p3.inQ_0 	rmtqueue-drop:last 	-nan
attr source  count(RMTQueue_Drop)
attr title  "dropped PDUs, last"
scalar treeBipart.N1_2_2.relayIpc.relayAndMux.p3.outQ_0 	rmtqueue-drop:last 	-nan
attr source  count(RMTQueue_Drop)
attr title  "dropped PDUs, last"
scalar treeBipart.N1_2_2.relayIpc.relayAndMux.p4.port 	rmtport-down:last 	5
attr source  count(RMTPort_PassDown)
attr title  "msg passed down, last"
scalar treeBipart.N1_2_2.relayIpc.relayAndMux.p4.port 	rmtport-up:last 	5
attr ""  ""
attr source  count(RMTPort_PassUp)
attr title  "msg passed up, last"
scalar treeBipart.N1_2_2.relayIpc.relayAndMux.p4.inQ_M 	rmtqueue-drop:last 	-nan
attr source  count(RMTQueue_Drop)
attr title  "dropped PDUs, last"
scalar treeBipart.N1_2_2.relayIpc.relayAndMux.p4.outQ_M 	rmtqueue-drop:last 	-nan
attr source  count(RMTQueue_Drop)
attr title  "dropped PDUs, last"
scalar treeBipart.N1_2_2.relayIpc.relayAndMux.p4.inQ_0 	rmtqueue-drop:last 	-nan
attr source  count(RMTQueue_Drop)
attr title  "dropped PDUs, last"
scalar treeBipart.N1_2_2.relayIpc.relayAndMux.p4.outQ_0 	rmtqueue-drop:last 	-nan
attr source  count(RMTQueue_Drop)
attr title  "dropped PDUs, last"
scalar treeBipart.S1_2_2.ipcProcess0.relayAndMux.p0.port 	rmtport-down:last 	11
attr source  count(RMTPort_PassDown)
attr title  "msg passed down, last"
scalar treeBipart.S1_2_2.ipcProcess0.relayAndMux.p0.port 	rmtport-up:last 	11
attr ""  ""
attr source  count(RMTPort_PassUp)
attr title  "msg passed up, last"
scalar treeBipart.S1_2_2.ipcProcess0.relayAndMux.p0.inQ_M 	rmtqueue-drop:last 	-nan
attr source  count(RMTQueue_Drop)
attr title  "dropped PDUs, last"
scalar treeBipart.S1_2_2.ipcProcess0.relayAndMux.p0.outQ_M 	rmtqueue-drop:last 	-nan
attr source  count(RMTQueue_Drop)
attr title  "dropped PDUs, last"
scalar treeBipart.S1_2_2.ipcProcess0.relayAndMux.p0.inQ_0 	rmtqueue-drop:last 	-nan
attr source  count(RMTQueue_Drop)
attr title  "dropped PDUs, last"
scalar treeBipart.S1_2_2.ipcProcess0.relayAndMux.p0.outQ_0 	rmtqueue-drop:last 	-nan
attr source  count(RMTQueue_Drop)
attr title  "dropped PDUs, last"
scalar treeBipart.S1_2_2.ipcProcess1.relayAndMux.p0.port 	rmtport-down:last 	5
attr source  count(RMTPort_PassDown)
attr title  "msg passed down, last"
scalar treeBipart.S1_2_2.ipcProcess1.relayAndMux.p0.port 	rmtport-up:last 	5
attr ""  ""
attr source  count(RMTPort_PassUp)
attr title  "msg passed up, last"
scalar treeBipart.S1_2_2.ipcProcess1.relayAndMux.p0.inQ_M 	rmtqueue-drop:last 	-nan
attr source  count(RMTQueue_Drop)
attr title  "dropped PDUs, last"
scalar treeBipart.S1_2_2.ipcProcess1.relayAndMux.p0.outQ_M 	rmtqueue-drop:last 	-nan
attr source  count(RMTQueue_Drop)
attr title  "dropped PDUs, last"
scalar treeBipart.S1_2_2.ipcProcess1.relayAndMux.p0.inQ_0 	rmtqueue-drop:last 	-nan
attr source  count(RMTQueue_Drop)
attr title  "dropped PDUs, last"
scalar treeBipart.S1_2_2.ipcProcess1.relayAndMux.p0.outQ_0 	rmtqueue-drop:last 	-nan
attr source  count(RMTQueue_Drop)
attr title  "dropped PDUs, last"
scalar treeBipart.S1_2_2.ipcResourceManager.irm 	irm-down:last 	-nan
attr source  count(IRM_PassDown)
attr title  "msg passed down, last"
scalar treeBipart.S1_2_2.ipcResourceManager.irm 	irm-up:last 	-nan
attr source  count(IRM_PassUp)
attr title  "msg passed up, last"
